Circuit: * C:\Users\MAIN\Desktop\class-d\Draft3.asc

Direct Newton iteration failed to find .op point.  (Use ".option noopiter" to skip.)
Starting Gmin stepping
Gmin = 10
vernier = 0.5
vernier = 0.25
Gmin = 2.62144
vernier = 0.125
vernier = 0.0625
vernier = 0.03125
vernier = 0.015625
Gmin = 2.42928
vernier = 0.0078125
vernier = 0.00390625
vernier = 0.00520833
Gmin = 2.41431
vernier = 0.00694444
Gmin = 2.37794
vernier = 0.00925925
vernier = 0.0123457
Gmin = 2.31957
vernier = 0.0164609
vernier = 0.0219478
Gmin = 2.23005
vernier = 0.0292638
Gmin = 2.0922
vernier = 0.0390184
vernier = 0.0520245
Gmin = 1.88498
vernier = 0.0693659
vernier = 0.0924879
Gmin = 1.59861
vernier = 0.123317
Gmin = 1.2251
vernier = 0.164423
vernier = 0.0822114
vernier = 0.0411057
Gmin = 1.02147
vernier = 0.0205529
vernier = 0.0102764
vernier = 0.00513821
Gmin = 1.00975
vernier = 0.00256911
vernier = 0.00128455
Gmin = 1.0049
vernier = 0.00171274
vernier = 0.000856369
Gmin = 1.00275
vernier = 0.000428184
vernier = 0.000570912
vernier = 0.000428184
Gmin = 1.00221
Gmin = 0
Gmin stepping failed

Starting source stepping with srcstepmethod=0
Source Step = 3.0303%
Source Step = 33.3333%
Source Step = 63.6364%
Source Step = 93.9394%
Source stepping succeeded in finding the operating point.


Date: Fri Apr 05 12:11:09 2019
Total elapsed time: 1.856 seconds.

tnom = 27
temp = 27
method = modified trap
totiter = 20747
traniter = 15723
tranpoints = 7846
accept = 5240
rejected = 2606
matrix size = 134
fillins = 198
solver = Normal
Thread vector: 6.1/4.6[3] 2.9/17.5[1] 1.1/58.1[1] 0.6/2.2[1]  2592/500
Matrix Compiler1: 14.83 KB object code size  4.1/2.0/[1.4]
Matrix Compiler2: 13.13 KB object code size  2.1/2.1/[0.8]

