Circuit: * C:\Users\MAIN\Desktop\class-d\spice2.asc

WARNING: Node N009 is floating.

WARNING: Less than two connections to node NC_07.  This node is used by R4.
Direct Newton iteration failed to find .op point.  (Use ".option noopiter" to skip.)
Starting Gmin stepping
Gmin = 10
vernier = 0.5
vernier = 0.25
Gmin = 2.62144
vernier = 0.125
vernier = 0.0625
vernier = 0.03125
vernier = 0.015625
Gmin = 2.42928
vernier = 0.0078125
vernier = 0.00390625
vernier = 0.00520833
Gmin = 2.41431
vernier = 0.00694444
Gmin = 2.37794
vernier = 0.00925925
vernier = 0.0123457
Gmin = 2.31957
vernier = 0.0164609
vernier = 0.0219478
Gmin = 2.23005
vernier = 0.0292638
Gmin = 2.0922
vernier = 0.0390184
vernier = 0.0520245
Gmin = 1.88498
vernier = 0.0693659
vernier = 0.0924879
Gmin = 1.59861
vernier = 0.123317
Gmin = 1.2251
vernier = 0.164423
vernier = 0.0822114
vernier = 0.0411057
Gmin = 1.02147
vernier = 0.0205529
vernier = 0.0102764
vernier = 0.00513821
Gmin = 1.00975
vernier = 0.00256911
vernier = 0.00128455
Gmin = 1.0049
vernier = 0.00171274
vernier = 0.000856369
Gmin = 1.00275
vernier = 0.000428184
vernier = 0.000570912
vernier = 0.000428184
Gmin = 1.00221
Gmin = 0
Gmin stepping failed

Starting source stepping with srcstepmethod=0
Source Step = 3.0303%
Source Step = 21.2121%
Source Step = 25.1894%
Source Step = 27.0833%
Source Step = 28.9773%
Source Step = 30.5398%
Source Step = 31.0133%
Source Step = 31.4867%
Source Step = 31.9602%
Source Step = 32.4337%
Source Step = 32.9072%
vernier = 0.0234375
Source Step = 33.6174%
Source Step = 34.3277%
Source Step = 35.0379%
Source Step = 35.4107%
Source Step = 35.5883%
Source Step = 35.7659%
Source Step = 35.9434%
Source Step = 36.121%
vernier = 0.00878906
Source Step = 36.334%
Source Step = 36.6004%
Source Step = 36.8667%
Source Step = 37.133%
Source Step = 37.3994%
vernier = 0.0131836
Source Step = 37.7057%
Source Step = 38.1052%
Source Step = 38.5047%
Source Step = 38.9042%
Source Step = 39.3037%
vernier = 0.0197754
Source Step = 39.7431%
Source Step = 40.3424%
Source Step = 40.9416%
Source Step = 41.5409%
Source Step = 42.1402%
vernier = 0.00494385
Source Step = 42.23%
Source Step = 42.3799%
Source Step = 42.5297%
Source Step = 42.6795%
Source Step = 42.8293%
vernier = 0.00741577
Source Step = 43.0465%
Source Step = 43.2712%
Source Step = 43.496%
Source Step = 43.7207%
Source Step = 43.9454%
vernier = 0.0111237
Source Step = 44.26%
Source Step = 44.5971%
Source Step = 44.9342%
Source Step = 45.2713%
Source Step = 45.6083%
vernier = 0.0166855
Source Step = 46.0634%
Source Step = 46.569%
Source Step = 47.0746%
Source Step = 47.5803%
Source Step = 48.0859%
vernier = 0.0250282
Source Step = 48.7432%
Source Step = 49.5016%
Source Step = 50.26%
Source Step = 51.0185%
Source Step = 51.7769%
vernier = 0.0375423
Source Step = 52.7249%
Source Step = 53.8626%
Source Step = 55.0002%
Source Step = 56.1379%
Source Step = 57.2755%
vernier = 0.0563135
Source Step = 58.6407%
Source Step = 60.3472%
Source Step = 62.0537%
Source Step = 63.7601%
Source Step = 65.4666%
vernier = 0.0844703
Source Step = 67.429%
Source Step = 69.9887%
Source Step = 72.5484%
Source Step = 75.1081%
Source Step = 77.6679%
vernier = 0.126705
Source Step = 80.4835%
vernier = 0.0316764
Source Step = 80.1476%
Source Step = 80.2076%
Source Step = 80.2676%
Source Step = 80.3275%
Source Step = 80.3875%
vernier = 0.00296966
Source Step = 80.4535%
Source Step = 80.5435%
Source Step = 80.6335%
Source Step = 80.7235%
Source Step = 80.8135%
vernier = 0.00445449
Source Step = 80.908%
Source Step = 81.043%
Source Step = 81.1779%
Source Step = 81.3129%
Source Step = 81.4479%
Source Step = 81.5829%
vernier = 0.00668173
Source Step = 81.7854%
Source Step = 81.9879%
Source Step = 82.1903%
Source Step = 82.3928%
Source Step = 82.5953%
vernier = 0.0100226
Source Step = 82.8889%
Source Step = 83.1926%
Source Step = 83.4963%
Source Step = 83.8%
Source Step = 84.1037%
vernier = 0.0150339
Source Step = 84.5289%
Source Step = 84.9845%
Source Step = 85.4401%
Source Step = 85.8957%
Source Step = 86.3512%
vernier = 0.0225508
Source Step = 86.9663%
Source Step = 87.6496%
Source Step = 88.333%
Source Step = 89.0163%
Source Step = 89.6997%
vernier = 0.0338263
Source Step = 90.5881%
Source Step = 91.6131%
Source Step = 92.6381%
Source Step = 93.6632%
Source Step = 94.6882%
vernier = 0.0507394
Source Step = 95.9695%
Source Step = 96.0464%
Starting source stepping with srcstepmethod=1
Source Step = 3.0303%
Source Step = 33.3333%
Source Step = 63.6364%
Source Step = 93.9394%
Source Step = 97.0289%
Source Step = 97.1473%
Source Step = 97.2656%
Source Step = 97.384%
Source Step = 97.5024%
vernier = 0.00585938
Source Step = 97.6444%
Source Step = 97.822%
Source Step = 97.9995%
Source Step = 98.1771%
Source Step = 98.3546%
vernier = 0.00878906
Source Step = 98.5588%
Source Step = 98.8252%
Source Step = 99.0915%
Source Step = 99.3578%
Source Step = 99.6242%
vernier = 0.0131836
Source Step = 99.9171%
Source stepping succeeded in finding the operating point.

Ignoring empty pin current: Ix(u5:5)
Ignoring empty pin current: Ix(u5:5)
Heightened Def Con from 1.59878e-006 to 1.59878e-006
Heightened Def Con from 1.59878e-006 to 1.59878e-006
Heightened Def Con from 1.59878e-006 to 1.59878e-006
Heightened Def Con from 1.59878e-006 to 1.59878e-006
Heightened Def Con from 1.59878e-006 +to 1.59878e-006
Heightened Def Con from 1.59878e-006 to 1.59878e-006
Heightened Def Con from 1.59878e-006 to 1.59878e-006
Heightened Def Con from 1.59878e-006 to 1.59878e-006
Heightened Def Con from 1.59878e-006 to 1.59878e-006
Heightened Def Con from 1.59878e-006 +to 1.59878e-006
Heightened Def Con from 1.59878e-006 to 1.59878e-006
Heightened Def Con from 1.59878e-006 +to 1.59878e-006
Heightened Def Con from 1.59878e-006 to 1.59878e-006
Heightened Def Con from 1.59878e-006 to 1.59878e-006
Heightened Def Con from 1.59878e-006 +to 1.59878e-006
Heightened Def Con from 1.59878e-006 to 1.59878e-006
Heightened Def Con from 1.59879e-006 to 1.59879e-006
Heightened Def Con from 1.59879e-006 +to 1.59879e-006
Heightened Def Con from 1.59879e-006 to 1.59879e-006
Heightened Def Con from 1.59879e-006 +to 1.59879e-006
Heightened Def Con from 1.59879e-006 to 1.59879e-006
Heightened Def Con from 1.59879e-006 to 1.59879e-006
Heightened Def Con from 1.59879e-006 to 1.59879e-006
Heightened Def Con from 1.59879e-006 to 1.59879e-006
Heightened Def Con from 1.59879e-006 to 1.59879e-006
Heightened Def Con from 1.59879e-006 to 1.59879e-006
Heightened Def Con from 1.59879e-006 +to 1.59879e-006
Heightened Def Con from 1.59879e-006 to 1.59879e-006
Heightened Def Con from 1.59879e-006 +to 1.59879e-006
Heightened Def Con from 1.59879e-006 to 1.59879e-006
Heightened Def Con from 1.59879e-006 to 1.59879e-006
Heightened Def Con from 1.59879e-006 to 1.59879e-006
Heightened Def Con from 1.59879e-006 to 1.59879e-006
Heightened Def Con from 1.59946e-006 to 1.60058e-006
Heightened Def Con from 1.60528e-006 to 1.6059e-006
Heightened Def Con from 2.33188e-006 to 2.33188e-006
Heightened Def Con from 2.33188e-006 to 2.33188e-006
Heightened Def Con from 2.33188e-006 to 2.33188e-006
Heightened Def Con from 2.33188e-006 to 2.33188e-006
Heightened Def Con from 2.33188e-006 to 2.33188e-006
Heightened Def Con from 2.33188e-006 +to 2.33188e-006
Heightened Def Con from 2.33188e-006 +to 2.33188e-006
Heightened Def Con from 2.33188e-006 to 2.33188e-006
Heightened Def Con from 2.33188e-006 to 2.33188e-006
Heightened Def Con from 2.33188e-006 to 2.33188e-006
Heightened Def Con from 2.33188e-006 +to 2.33188e-006
Heightened Def Con from 2.33188e-006 to 2.33188e-006
Heightened Def Con from 2.33188e-006 to 2.33188e-006
Heightened Def Con from 2.33188e-006 to 2.33188e-006
Heightened Def Con from 2.33188e-006 to 2.33188e-006
Heightened Def Con from 2.33188e-006 +to 2.33188e-006
Heightened Def Con from 2.33188e-006 to 2.33188e-006
Heightened Def Con from 2.33188e-006 to 2.33188e-006
Heightened Def Con from 2.33188e-006 ++++++++++++++++++++to 2.33188e-006
Heightened Def Con from 2.33188e-006 ++++++++++++++++to 2.33188e-006
Heightened Def Con from 2.33188e-006 ++++++++++++++++to 2.33188e-006
Heightened Def Con from 2.33188e-006 ++++++++++++++++to 2.33188e-006
Heightened Def Con from 2.33188e-006 ++++++++++++++++to 2.33188e-006
Heightened Def Con from 2.33188e-006 ++++++++++++++++to 2.33188e-006
Heightened Def Con from 2.33188e-006 ++++++++++++++++to 2.33188e-006
Heightened Def Con from 2.33188e-006 ++++++++++++++++to 2.33188e-006
Heightened Def Con from 2.33188e-006 ++++++++++++++++to 2.33188e-006
Heightened Def Con from 2.33188e-006 ++++++++++++++++to 2.33188e-006
Heightened Def Con from 2.33188e-006 +++++++++++++++to 2.33189e-006
Heightened Def Con from 2.33189e-006 +++++++++++++++to 2.33193e-006
Heightened Def Con from 2.33193e-006 +++++++++++++++to 2.33243e-006
Heightened Def Con from 2.33243e-006 +++++++++++++++to 2.33368e-006
Heightened Def Con from 2.33368e-006 +++++++++++++++to 2.33481e-006
Heightened Def Con from 2.33481e-006 +++++++++++++++to 2.33593e-006
Heightened Def Con from 2.33593e-006 +++++++++++++++to 2.33893e-006
Heightened Def Con from 2.33893e-006 +++++++++++++++to 2.34493e-006
Heightened Def Con from 2.34493e-006 +++++++++++++++to 2.34793e-006
Heightened Def Con from 2.34793e-006 +++++++++++++++to 2.35093e-006
Heightened Def Con from 2.35093e-006 +++++++++++++++to 2.35393e-006
Heightened Def Con from 2.35393e-006 +++++++++++++++to 2.35693e-006
Heightened Def Con from 2.35693e-006 +++++++++++++++to 2.35993e-006
Heightened Def Con from 2.35993e-006 +++++++++++++++to 2.36293e-006
Heightened Def Con from 2.36293e-006 +++++++++++++++to 2.36493e-006
Heightened Def Con from 2.36493e-006 +++++++++++++++to 2.36693e-006
Heightened Def Con from 2.36693e-006 +++++++++++++++to 2.36893e-006
Heightened Def Con from 2.36893e-006 +++++++++++++++to 2.37093e-006
Heightened Def Con from 2.37093e-006 +++++++++++++++to 2.37293e-006
Heightened Def Con from 2.37293e-006 +++++++++++++++to 2.37493e-006
Heightened Def Con from 2.37493e-006 +++++++++++++++to 2.37693e-006
Heightened Def Con from 2.37693e-006 +++++++++++++++to 2.37893e-006
Heightened Def Con from 2.37893e-006 +++++++++++++++to 2.38093e-006
Heightened Def Con from 2.38093e-006 +++++++++++++++to 2.38293e-006
Heightened Def Con from 2.38293e-006 +++++++++++++++to 2.38493e-006
Heightened Def Con from 2.38493e-006 +++++++++++++++to 2.38693e-006
Heightened Def Con from 2.38693e-006 +++++++++++++++to 2.38893e-006
Heightened Def Con from 2.38893e-006 +++++++++++++++to 2.39093e-006
Heightened Def Con from 2.39093e-006 +++++++++++++++to 2.39293e-006
Heightened Def Con from 2.39293e-006 +++++++++++++++to 2.39493e-006
Heightened Def Con from 2.39493e-006 +++++++++++++++to 2.39693e-006
Heightened Def Con from 2.39693e-006 +++++++++++++++to 2.39893e-006
Heightened Def Con from 2.39893e-006 +++++++++++++++to 2.40093e-006
Heightened Def Con from 2.40093e-006 +++++++++++++++to 2.40293e-006
Heightened Def Con from 2.40293e-006 +++++++++++++++to 2.40493e-006
Heightened Def Con from 2.40493e-006 +++++++++++++++to 2.40693e-006
Heightened Def Con from 2.40693e-006 +++++++++++++++to 2.40893e-006
Heightened Def Con from 2.40893e-006 +++++++++++++++to 2.41093e-006
Heightened Def Con from 2.41093e-006 +++++++++++++++to 2.41293e-006
Heightened Def Con from 2.41293e-006 +++++++++++++++to 2.41493e-006
Heightened Def Con from 2.41493e-006 +++++++++++++++to 2.41693e-006
Heightened Def Con from 2.41693e-006 +++++++++++++++to 2.41893e-006
Heightened Def Con from 2.41893e-006 +++++++++++++++to 2.42093e-006
Heightened Def Con from 2.42093e-006 +++++++++++++++to 2.42293e-006
Heightened Def Con from 2.42293e-006 +++++++++++++++to 2.42493e-006
Heightened Def Con from 2.42493e-006 +++++++++++++++to 2.42693e-006
Heightened Def Con from 2.42693e-006 +++++++++++++++to 2.42893e-006
Heightened Def Con from 2.42893e-006 +++++++++++++++to 2.43093e-006
Heightened Def Con from 2.43093e-006 +++++++++++++++to 2.43293e-006
Heightened Def Con from 2.43293e-006 +++++++++++++++to 2.43493e-006
Heightened Def Con from 2.43493e-006 +++++++++++++++to 2.43693e-006
Heightened Def Con from 2.43693e-006 +++++++++++++++to 2.43893e-006
Heightened Def Con from 2.43893e-006 +++++++++++++++to 2.44093e-006
Heightened Def Con from 2.44093e-006 +++++++++++++++to 2.44293e-006
Heightened Def Con from 2.44293e-006 +++++++++++++++to 2.44493e-006
Heightened Def Con from 2.44493e-006 +++++++++++++++to 2.44693e-006
Heightened Def Con from 2.44693e-006 +++++++++++++++to 2.44893e-006
Heightened Def Con from 2.44893e-006 +++++++++++++++to 2.44993e-006
Heightened Def Con from 2.44993e-006 +++++++++++++++to 2.45093e-006
Heightened Def Con from 2.45093e-006 +++++++++++++++to 2.45193e-006
Heightened Def Con from 2.45193e-006 +++++++++++++++to 2.45293e-006
Heightened Def Con from 2.45293e-006 +++++++++++++++to 2.45393e-006
Heightened Def Con from 2.45393e-006 +++++++++++++++to 2.45493e-006
Heightened Def Con from 2.45493e-006 +++++++++++++++to 2.45593e-006
Heightened Def Con from 2.45593e-006 +++++++++++++++to 2.45693e-006
Heightened Def Con from 2.45693e-006 +++++++++++++++to 2.45793e-006
Heightened Def Con from 2.45793e-006 +++++++++++++++to 2.45893e-006
Heightened Def Con from 2.45893e-006 +++++++++++++++to 2.45993e-006
Heightened Def Con from 2.45993e-006 +++++++++++++++to 2.46093e-006
Heightened Def Con from 2.46093e-006 +++++++++++++++to 2.46193e-006
Heightened Def Con from 2.46193e-006 +++++++++++++++to 2.46293e-006
Heightened Def Con from 2.46293e-006 +++++++++++++++to 2.46393e-006
Heightened Def Con from 2.46393e-006 +++++++++++++++to 2.46493e-006
Heightened Def Con from 2.46493e-006 +++++++++++++++to 2.46593e-006
Heightened Def Con from 2.46593e-006 +++++++++++++++to 2.46693e-006
Heightened Def Con from 2.46693e-006 +++++++++++++++to 2.46793e-006
Heightened Def Con from 2.46793e-006 +++++++++++++++to 2.46893e-006
Heightened Def Con from 2.46893e-006 +++++++++++++++to 2.46993e-006
Heightened Def Con from 2.46993e-006 +++++++++++++++to 2.47093e-006
Heightened Def Con from 2.47093e-006 +++++++++++++++to 2.47193e-006
Heightened Def Con from 2.47193e-006 +++++++++++++++to 2.47293e-006
Heightened Def Con from 2.47293e-006 +++++++++++++++to 2.47393e-006
Heightened Def Con from 2.47393e-006 +++++++++++++++to 2.47493e-006
Heightened Def Con from 2.47493e-006 +++++++++++++++to 2.47593e-006
Heightened Def Con from 2.47593e-006 +++++++++++++++to 2.47693e-006
Heightened Def Con from 2.47693e-006 +++++++++++++++to 2.47793e-006
Heightened Def Con from 2.47793e-006 +++++++++++++++to 2.47893e-006
Heightened Def Con from 2.47893e-006 +++++++++++++++to 2.47993e-006
Heightened Def Con from 2.47993e-006 +++++++++++++++to 2.48093e-006
Heightened Def Con from 2.48093e-006 +++++++++++++++to 2.48193e-006
Heightened Def Con from 2.48193e-006 +++++++++++++++to 2.48293e-006
Heightened Def Con from 2.48293e-006 +++++++++++++++to 2.48393e-006
Heightened Def Con from 2.48393e-006 +++++++++++++++to 2.48493e-006
Heightened Def Con from 2.48493e-006 +++++++++++++++to 2.48593e-006
Heightened Def Con from 2.48593e-006 +++++++++++++++to 2.48693e-006
Heightened Def Con from 2.48693e-006 +++++++++++++++to 2.48793e-006
Heightened Def Con from 2.48793e-006 +++++++++++++++to 2.48893e-006
Heightened Def Con from 2.48893e-006 +++++++++++++++to 2.48993e-006
Heightened Def Con from 2.48993e-006 +++++++++++++++to 2.49093e-006
Heightened Def Con from 2.49093e-006 +++++++++++++++to 2.49193e-006
Heightened Def Con from 2.49193e-006 +++++++++++++++to 2.49293e-006
Heightened Def Con from 2.49293e-006 +++++++++++++++to 2.49393e-006
Heightened Def Con from 2.49393e-006 +++++++++++++++to 2.49493e-006
Heightened Def Con from 2.49493e-006 +++++++++++++++to 2.49593e-006
Heightened Def Con from 2.49593e-006 +++++++++++++++to 2.49693e-006
Heightened Def Con from 2.49693e-006 +++++++++++++++to 2.49793e-006
Heightened Def Con from 2.49793e-006 +++++++++++++++to 2.49893e-006
Heightened Def Con from 2.49893e-006 +++++++++++++++to 2.49993e-006
Heightened Def Con from 2.49993e-006 +++++++++++++++to 2.50093e-006
Heightened Def Con from 2.50093e-006 +++++++++++++++to 2.50193e-006
Heightened Def Con from 2.50193e-006 +++++++++++++++to 2.50293e-006
Heightened Def Con from 2.50293e-006 +++++++++++++++to 2.50393e-006
Heightened Def Con from 2.50393e-006 +++++++++++++++to 2.50493e-006
Heightened Def Con from 2.50493e-006 +++++++++++++++to 2.50593e-006
Heightened Def Con from 2.50593e-006 +++++++++++++++to 2.50693e-006
Heightened Def Con from 2.50693e-006 +++++++++++++++to 2.50793e-006
Heightened Def Con from 2.50793e-006 +++++++++++++++to 2.50893e-006
Heightened Def Con from 2.50893e-006 +++++++++++++++to 2.50993e-006
Heightened Def Con from 2.50993e-006 +++++++++++++++to 2.51093e-006
Heightened Def Con from 2.51093e-006 +++++++++++++++to 2.51193e-006
Heightened Def Con from 2.51193e-006 +++++++++++++++to 2.51293e-006
Heightened Def Con from 2.51293e-006 +++++++++++++++to 2.51393e-006
Heightened Def Con from 2.51393e-006 +++++++++++++++to 2.51493e-006
Heightened Def Con from 2.51493e-006 +++++++++++++++to 2.51593e-006
Heightened Def Con from 2.51593e-006 +++++++++++++++to 2.51693e-006
Heightened Def Con from 2.51693e-006 +++++++++++++++to 2.51793e-006
Heightened Def Con from 2.51793e-006 +++++++++++++++to 2.51893e-006
Heightened Def Con from 2.51893e-006 +++++++++++++++to 2.51993e-006
Heightened Def Con from 2.51993e-006 +++++++++++++++to 2.52093e-006
Heightened Def Con from 2.52093e-006 +++++++++++++++to 2.52193e-006
Heightened Def Con from 2.52193e-006 +++++++++++++++to 2.52293e-006
Heightened Def Con from 2.52293e-006 +++++++++++++++to 2.52393e-006
Heightened Def Con from 2.52393e-006 +++++++++++++++to 2.52493e-006
Heightened Def Con from 2.52493e-006 +++++++++++++++to 2.52593e-006
Heightened Def Con from 2.52593e-006 +++++++++++++++to 2.52693e-006
Heightened Def Con from 2.52693e-006 +++++++++++++++to 2.52793e-006
Heightened Def Con from 2.52793e-006 +++++++++++++++to 2.52893e-006
Heightened Def Con from 2.52893e-006 +++++++++++++++to 2.52993e-006
Heightened Def Con from 2.52993e-006 +++++++++++++++to 2.53093e-006
Heightened Def Con from 2.53093e-006 +++++++++++++++to 2.53193e-006
Heightened Def Con from 2.53193e-006 +++++++++++++++to 2.53293e-006
Heightened Def Con from 2.53293e-006 +++++++++++++++to 2.53393e-006
Heightened Def Con from 2.53393e-006 +++++++++++++++to 2.53493e-006
Heightened Def Con from 2.53493e-006 +++++++++++++++to 2.53593e-006
Heightened Def Con from 2.53593e-006 +++++++++++++++to 2.53693e-006
Heightened Def Con from 2.53693e-006 +++++++++++++++to 2.53793e-006
Heightened Def Con from 2.53793e-006 +++++++++++++++to 2.53893e-006
Heightened Def Con from 2.53893e-006 +++++++++++++++to 2.53993e-006
Heightened Def Con from 2.53993e-006 +++++++++++++++to 2.54093e-006
Heightened Def Con from 2.54093e-006 +++++++++++++++to 2.54193e-006
Heightened Def Con from 2.54193e-006 +++++++++++++++to 2.54293e-006
Heightened Def Con from 2.54293e-006 +++++++++++++++to 2.54393e-006
Heightened Def Con from 2.54393e-006 +++++++++++++++to 2.54493e-006
Heightened Def Con from 2.54493e-006 +++++++++++++++to 2.54593e-006
Heightened Def Con from 2.54593e-006 +++++++++++++++to 2.54693e-006
Heightened Def Con from 2.54693e-006 +++++++++++++++to 2.54793e-006
Heightened Def Con from 2.54793e-006 +++++++++++++++to 2.54893e-006
Heightened Def Con from 2.54893e-006 +++++++++++++++to 2.54993e-006
Heightened Def Con from 2.54993e-006 +++++++++++++++to 2.55093e-006
Heightened Def Con from 2.55093e-006 +++++++++++++++to 2.55193e-006
Heightened Def Con from 2.55193e-006 +++++++++++++++to 2.55293e-006
Heightened Def Con from 2.55293e-006 +++++++++++++++to 2.55393e-006
Heightened Def Con from 2.55393e-006 +++++++++++++++to 2.55493e-006
Heightened Def Con from 2.55493e-006 +++++++++++++++to 2.55593e-006
Heightened Def Con from 2.55593e-006 +++++++++++++++to 2.55693e-006
Heightened Def Con from 2.55693e-006 +++++++++++++++to 2.55793e-006
Heightened Def Con from 2.55793e-006 +++++++++++++++to 2.55893e-006
Heightened Def Con from 2.55893e-006 +++++++++++++++to 2.55993e-006
Heightened Def Con from 2.55993e-006 +++++++++++++++to 2.56093e-006
Heightened Def Con from 2.56093e-006 +++++++++++++++to 2.56193e-006
Heightened Def Con from 2.56193e-006 +++++++++++++++to 2.56293e-006
Heightened Def Con from 2.56293e-006 +++++++++++++++to 2.56393e-006
Heightened Def Con from 2.56393e-006 +++++++++++++++to 2.56493e-006
Heightened Def Con from 2.56493e-006 +++++++++++++++to 2.56593e-006
Heightened Def Con from 2.56593e-006 +++++++++++++++to 2.56693e-006
Heightened Def Con from 2.56693e-006 +++++++++++++++to 2.56793e-006
Heightened Def Con from 2.56793e-006 +++++++++++++++to 2.56893e-006
Heightened Def Con from 2.56893e-006 +++++++++++++++to 2.56993e-006
Heightened Def Con from 2.56993e-006 +++++++++++++++to 2.57093e-006
Heightened Def Con from 2.57093e-006 +++++++++++++++to 2.57193e-006
Heightened Def Con from 2.57193e-006 +++++++++++++++to 2.57293e-006
Heightened Def Con from 2.57293e-006 +++++++++++++++to 2.57393e-006
Heightened Def Con from 2.57393e-006 +++++++++++++++to 2.57493e-006
Heightened Def Con from 2.57493e-006 +++++++++++++++to 2.57593e-006
Heightened Def Con from 2.57593e-006 +++++++++++++++to 2.57693e-006
Heightened Def Con from 2.57693e-006 +++++++++++++++to 2.57793e-006
Heightened Def Con from 2.57793e-006 +++++++++++++++to 2.57893e-006
Heightened Def Con from 2.57893e-006 +++++++++++++++to 2.57993e-006
Heightened Def Con from 2.57993e-006 +++++++++++++++to 2.58093e-006
Heightened Def Con from 2.58093e-006 +++++++++++++++to 2.58193e-006
Heightened Def Con from 2.58193e-006 +++++++++++++++to 2.58293e-006
Heightened Def Con from 2.58293e-006 +++++++++++++++to 2.58393e-006
Heightened Def Con from 2.58393e-006 +++++++++++++++to 2.58493e-006
Heightened Def Con from 2.58493e-006 +++++++++++++++to 2.58593e-006
Heightened Def Con from 2.58593e-006 +++++++++++++++to 2.58693e-006
Heightened Def Con from 2.58693e-006 +++++++++++++++to 2.58793e-006
Heightened Def Con from 2.58793e-006 +++++++++++++++to 2.58893e-006
Heightened Def Con from 2.58893e-006 +++++++++++++++to 2.58993e-006
Heightened Def Con from 2.58993e-006 +++++++++++++++to 2.59093e-006
Heightened Def Con from 2.59093e-006 +++++++++++++++to 2.59193e-006
Heightened Def Con from 2.59193e-006 +++++++++++++++to 2.59293e-006
Heightened Def Con from 2.59293e-006 +++++++++++++++to 2.59393e-006
Heightened Def Con from 2.59393e-006 +++++++++++++++to 2.59493e-006
Heightened Def Con from 2.59493e-006 +++++++++++++++to 2.59593e-006
Heightened Def Con from 2.59593e-006 +++++++++++++++to 2.59693e-006
Heightened Def Con from 2.59693e-006 +++++++++++++++to 2.59793e-006
Heightened Def Con from 2.59793e-006 +++++++++++++++to 2.59893e-006
Heightened Def Con from 2.59893e-006 +++++++++++++++to 2.59993e-006
Heightened Def Con from 2.59993e-006 +++++++++++++++to 2.60093e-006
Heightened Def Con from 2.60093e-006 +++++++++++++++to 2.60193e-006
Heightened Def Con from 2.60193e-006 +++++++++++++++to 2.60293e-006
Heightened Def Con from 2.60293e-006 +++++++++++++++to 2.60393e-006
Heightened Def Con from 2.60393e-006 +++++++++++++++to 2.60493e-006
Heightened Def Con from 2.60493e-006 +++++++++++++++to 2.60593e-006
Heightened Def Con from 2.60593e-006 +++++++++++++++to 2.60693e-006
Heightened Def Con from 2.60693e-006 +++++++++++++++to 2.60793e-006
Heightened Def Con from 2.60793e-006 +++++++++++++++to 2.60893e-006
Heightened Def Con from 2.60893e-006 +++++++++++++++to 2.60993e-006
Heightened Def Con from 2.60993e-006 +++++++++++++++to 2.61093e-006
Heightened Def Con from 2.61093e-006 +++++++++++++++to 2.61193e-006
Heightened Def Con from 2.61193e-006 +++++++++++++++to 2.61293e-006
Heightened Def Con from 2.61293e-006 +++++++++++++++to 2.61393e-006
Heightened Def Con from 2.61393e-006 +++++++++++++++to 2.61493e-006
Heightened Def Con from 2.61493e-006 +++++++++++++++to 2.61593e-006
Heightened Def Con from 2.61593e-006 +++++++++++++++to 2.61693e-006
Heightened Def Con from 2.61693e-006 +++++++++++++++to 2.61793e-006
Heightened Def Con from 2.61793e-006 +++++++++++++++to 2.61893e-006
Heightened Def Con from 2.61893e-006 +++++++++++++++to 2.61993e-006
Heightened Def Con from 2.61993e-006 +++++++++++++++to 2.62093e-006
Heightened Def Con from 2.62093e-006 +++++++++++++++to 2.62193e-006
Heightened Def Con from 2.62193e-006 +++++++++++++++to 2.62293e-006
Heightened Def Con from 2.62293e-006 +++++++++++++++to 2.62393e-006
Heightened Def Con from 2.62393e-006 +++++++++++++++to 2.62493e-006
Heightened Def Con from 2.62493e-006 +++++++++++++++to 2.62593e-006
Heightened Def Con from 2.62593e-006 +++++++++++++++to 2.62693e-006
Heightened Def Con from 2.62693e-006 +++++++++++++++to 2.62793e-006
Heightened Def Con from 2.62793e-006 +++++++++++++++to 2.62893e-006
Heightened Def Con from 2.62893e-006 +++++++++++++++to 2.62993e-006
Heightened Def Con from 2.62993e-006 +++++++++++++++to 2.63093e-006
Heightened Def Con from 2.63093e-006 +++++++++++++++to 2.63193e-006
Heightened Def Con from 2.63193e-006 +++++++++++++++to 2.63293e-006
Heightened Def Con from 2.63293e-006 +++++++++++++++to 2.63393e-006
Heightened Def Con from 2.63393e-006 +++++++++++++++to 2.63493e-006
Heightened Def Con from 2.63493e-006 +++++++++++++++to 2.63593e-006
Heightened Def Con from 2.63593e-006 +++++++++++++++to 2.63693e-006
Heightened Def Con from 2.63693e-006 +++++++++++++++to 2.63793e-006
Heightened Def Con from 2.63793e-006 +++++++++++++++to 2.63893e-006
Heightened Def Con from 2.63893e-006 +++++++++++++++to 2.63993e-006
Heightened Def Con from 2.63993e-006 +++++++++++++++to 2.64093e-006
Heightened Def Con from 2.64093e-006 +++++++++++++++to 2.64193e-006
Heightened Def Con from 2.64193e-006 +++++++++++++++to 2.64293e-006
Heightened Def Con from 2.64293e-006 +++++++++++++++to 2.64393e-006
Heightened Def Con from 2.64393e-006 +++++++++++++++to 2.64493e-006
Heightened Def Con from 2.64493e-006 +++++++++++++++to 2.64593e-006
Heightened Def Con from 2.64593e-006 +++++++++++++++to 2.64693e-006
Heightened Def Con from 2.64693e-006 +++++++++++++++to 2.64793e-006
Heightened Def Con from 2.64793e-006 +++++++++++++++to 2.64893e-006
Heightened Def Con from 2.64893e-006 +++++++++++++++to 2.64993e-006
Heightened Def Con from 2.64993e-006 +++++++++++++++to 2.65093e-006
Heightened Def Con from 2.65093e-006 +++++++++++++++to 2.65193e-006
Heightened Def Con from 2.65193e-006 +++++++++++++++to 2.65293e-006
Heightened Def Con from 2.65293e-006 +++++++++++++++to 2.65393e-006
Heightened Def Con from 2.65393e-006 +++++++++++++++to 2.65493e-006
Heightened Def Con from 2.65493e-006 +++++++++++++++to 2.65593e-006
Heightened Def Con from 2.65593e-006 +++++++++++++++to 2.65693e-006
Heightened Def Con from 2.65693e-006 +++++++++++++++to 2.65793e-006
Heightened Def Con from 2.65793e-006 +++++++++++++++to 2.65893e-006
Heightened Def Con from 2.65893e-006 +++++++++++++++to 2.65993e-006
Heightened Def Con from 2.65993e-006 +++++++++++++++to 2.66093e-006
Heightened Def Con from 2.66093e-006 +++++++++++++++to 2.66193e-006
Heightened Def Con from 2.66193e-006 +++++++++++++++to 2.66293e-006
Heightened Def Con from 2.66293e-006 +++++++++++++++to 2.66393e-006
Heightened Def Con from 2.66393e-006 +++++++++++++++to 2.66493e-006
Heightened Def Con from 2.66493e-006 +++++++++++++++to 2.66593e-006
Heightened Def Con from 2.66593e-006 +++++++++++++++to 2.66693e-006
Heightened Def Con from 2.66693e-006 +++++++++++++++to 2.66793e-006
Heightened Def Con from 2.66793e-006 +++++++++++++++to 2.66893e-006
Heightened Def Con from 2.66893e-006 +++++++++++++++to 2.66993e-006
Heightened Def Con from 2.66993e-006 +++++++++++++++to 2.67093e-006
Heightened Def Con from 2.67093e-006 +++++++++++++++to 2.67193e-006
Heightened Def Con from 2.67193e-006 +++++++++++++++to 2.67293e-006
Heightened Def Con from 2.67293e-006 +++++++++++++++to 2.67393e-006
Heightened Def Con from 2.67393e-006 +++++++++++++++to 2.67493e-006
Heightened Def Con from 2.67493e-006 +++++++++++++++to 2.67593e-006
Heightened Def Con from 2.67593e-006 +++++++++++++++to 2.67693e-006
Heightened Def Con from 2.67693e-006 +++++++++++++++to 2.67793e-006
Heightened Def Con from 2.67793e-006 +++++++++++++++to 2.67893e-006
Heightened Def Con from 2.67893e-006 +++++++++++++++to 2.67993e-006
Heightened Def Con from 2.67993e-006 +++++++++++++++to 2.68093e-006
Heightened Def Con from 2.68093e-006 +++++++++++++++to 2.68193e-006
Heightened Def Con from 2.68193e-006 +++++++++++++++to 2.68293e-006
Heightened Def Con from 2.68293e-006 +++++++++++++++to 2.68393e-006
Heightened Def Con from 2.68393e-006 +++++++++++++++to 2.68493e-006
Heightened Def Con from 2.68493e-006 +++++++++++++++to 2.68593e-006
Heightened Def Con from 2.68593e-006 +++++++++++++++to 2.68693e-006
Heightened Def Con from 2.68693e-006 +++++++++++++++to 2.68793e-006
Heightened Def Con from 2.68793e-006 +++++++++++++++to 2.68893e-006
Heightened Def Con from 2.68893e-006 +++++++++++++++to 2.68993e-006
Heightened Def Con from 2.68993e-006 +++++++++++++++to 2.69093e-006
Heightened Def Con from 2.69093e-006 +++++++++++++++to 2.69193e-006
Heightened Def Con from 2.69193e-006 +++++++++++++++to 2.69293e-006
Heightened Def Con from 2.69293e-006 +++++++++++++++to 2.69393e-006
Heightened Def Con from 2.69393e-006 +++++++++++++++to 2.69493e-006
Heightened Def Con from 2.69493e-006 +++++++++++++++to 2.69593e-006
Heightened Def Con from 2.69593e-006 +++++++++++++++to 2.69693e-006
Heightened Def Con from 2.69693e-006 +++++++++++++++to 2.69793e-006
Heightened Def Con from 2.69793e-006 +++++++++++++++to 2.69893e-006
Heightened Def Con from 2.69893e-006 +++++++++++++++to 2.69993e-006
Heightened Def Con from 2.69993e-006 +++++++++++++++to 2.70093e-006
Heightened Def Con from 2.70093e-006 +++++++++++++++to 2.70193e-006
Heightened Def Con from 2.70193e-006 +++++++++++++++to 2.70293e-006
Heightened Def Con from 2.70293e-006 +++++++++++++++to 2.70393e-006
Heightened Def Con from 2.70393e-006 +++++++++++++++to 2.70493e-006
Heightened Def Con from 2.70493e-006 +++++++++++++++to 2.70593e-006
Heightened Def Con from 2.70593e-006 +++++++++++++++to 2.70693e-006
Heightened Def Con from 2.70693e-006 +++++++++++++++to 2.70793e-006
Heightened Def Con from 2.70793e-006 +++++++++++++++to 2.70893e-006
Heightened Def Con from 2.70893e-006 +++++++++++++++to 2.70993e-006
Heightened Def Con from 2.70993e-006 +++++++++++++++to 2.71093e-006
Heightened Def Con from 2.71093e-006 +++++++++++++++to 2.71193e-006
Heightened Def Con from 2.71193e-006 +++++++++++++++to 2.71293e-006
Heightened Def Con from 2.71293e-006 +++++++++++++++to 2.71393e-006
Heightened Def Con from 2.71393e-006 +++++++++++++++to 2.71493e-006
Heightened Def Con from 2.71493e-006 +++++++++++++++to 2.71593e-006
Heightened Def Con from 2.71593e-006 +++++++++++++++to 2.71693e-006
Heightened Def Con from 2.71693e-006 +++++++++++++++to 2.71793e-006
Heightened Def Con from 2.71793e-006 +++++++++++++++to 2.71893e-006
Heightened Def Con from 2.71893e-006 +++++++++++++++to 2.71993e-006
Heightened Def Con from 2.71993e-006 +++++++++++++++to 2.72093e-006
Heightened Def Con from 2.72093e-006 +++++++++++++++to 2.72193e-006
Heightened Def Con from 2.72193e-006 +++++++++++++++to 2.72293e-006
Heightened Def Con from 2.72293e-006 +++++++++++++++to 2.72393e-006
Heightened Def Con from 2.72393e-006 +++++++++++++++to 2.72493e-006
Heightened Def Con from 2.72493e-006 +++++++++++++++to 2.72593e-006
Heightened Def Con from 2.72593e-006 +++++++++++++++to 2.72693e-006
Heightened Def Con from 2.72693e-006 +++++++++++++++to 2.72793e-006
Heightened Def Con from 2.72793e-006 +++++++++++++++to 2.72893e-006
Heightened Def Con from 2.72893e-006 +++++++++++++++to 2.72993e-006
Heightened Def Con from 2.72993e-006 +++++++++++++++to 2.73093e-006
Heightened Def Con from 2.73093e-006 +++++++++++++++to 2.73193e-006
Heightened Def Con from 2.73193e-006 +++++++++++++++to 2.73293e-006
Heightened Def Con from 2.73293e-006 +++++++++++++++to 2.73393e-006
Heightened Def Con from 2.73393e-006 +++++++++++++++to 2.73493e-006
Heightened Def Con from 2.73493e-006 +++++++++++++++to 2.73593e-006
Heightened Def Con from 2.73593e-006 +++++++++++++++to 2.73693e-006
Heightened Def Con from 2.73693e-006 +++++++++++++++to 2.73793e-006
Heightened Def Con from 2.73793e-006 +++++++++++++++to 2.73893e-006
Heightened Def Con from 2.73893e-006 +++++++++++++++to 2.73993e-006
Heightened Def Con from 2.73993e-006 +++++++++++++++to 2.74093e-006
Heightened Def Con from 2.74093e-006 +++++++++++++++to 2.74193e-006
Heightened Def Con from 2.74193e-006 +++++++++++++++to 2.74293e-006
Heightened Def Con from 2.74293e-006 +++++++++++++++to 2.74393e-006
Heightened Def Con from 2.74393e-006 +++++++++++++++to 2.74493e-006
Heightened Def Con from 2.74493e-006 +++++++++++++++to 2.74593e-006
Heightened Def Con from 2.74593e-006 +++++++++++++++to 2.74693e-006
Heightened Def Con from 2.74693e-006 +++++++++++++++to 2.74793e-006
Heightened Def Con from 2.74793e-006 +++++++++++++++to 2.74893e-006
Heightened Def Con from 2.74893e-006 +++++++++++++++to 2.74993e-006
Heightened Def Con from 2.74993e-006 +++++++++++++++to 2.75093e-006
Heightened Def Con from 2.75093e-006 +++++++++++++++to 2.75193e-006
Heightened Def Con from 2.75193e-006 +++++++++++++++to 2.75293e-006
Heightened Def Con from 2.75293e-006 +++++++++++++++to 2.75393e-006
Heightened Def Con from 2.75393e-006 +++++++++++++++to 2.75493e-006
Heightened Def Con from 2.75493e-006 +++++++++++++++to 2.75593e-006
Heightened Def Con from 2.75593e-006 +++++++++++++++to 2.75693e-006
Heightened Def Con from 2.75693e-006 +++++++++++++++to 2.75793e-006
Heightened Def Con from 2.75793e-006 +++++++++++++++to 2.75893e-006
Heightened Def Con from 2.75893e-006 +++++++++++++++to 2.75993e-006
Heightened Def Con from 2.75993e-006 +++++++++++++++to 2.76093e-006
Heightened Def Con from 2.76093e-006 +++++++++++++++to 2.76193e-006
Heightened Def Con from 2.76193e-006 +++++++++++++++to 2.76293e-006
Heightened Def Con from 2.76293e-006 +++++++++++++++to 2.76393e-006
Heightened Def Con from 2.76393e-006 +++++++++++++++to 2.76493e-006
Heightened Def Con from 2.76493e-006 +++++++++++++++to 2.76593e-006
Heightened Def Con from 2.76593e-006 +++++++++++++++to 2.76693e-006
Heightened Def Con from 2.76693e-006 +++++++++++++++to 2.76793e-006
Heightened Def Con from 2.76793e-006 +++++++++++++++to 2.76893e-006
Heightened Def Con from 2.76893e-006 +++++++++++++++to 2.76993e-006
Heightened Def Con from 2.76993e-006 +++++++++++++++to 2.77093e-006
Heightened Def Con from 2.77093e-006 +++++++++++++++to 2.77193e-006
Heightened Def Con from 2.77193e-006 +++++++++++++++to 2.77293e-006
Heightened Def Con from 2.77293e-006 +++++++++++++++to 2.77393e-006
Heightened Def Con from 2.77393e-006 +++++++++++++++to 2.77493e-006
Heightened Def Con from 2.77493e-006 +++++++++++++++to 2.77593e-006
Heightened Def Con from 2.77593e-006 +++++++++++++++to 2.77693e-006
Heightened Def Con from 2.77693e-006 +++++++++++++++to 2.77793e-006
Heightened Def Con from 2.77793e-006 +++++++++++++++to 2.77893e-006
Heightened Def Con from 2.77893e-006 +++++++++++++++to 2.77993e-006
Heightened Def Con from 2.77993e-006 +++++++++++++++to 2.78093e-006
Heightened Def Con from 2.78093e-006 +++++++++++++++to 2.78193e-006
Heightened Def Con from 2.78193e-006 +++++++++++++++to 2.78293e-006
Heightened Def Con from 2.78293e-006 +++++++++++++++to 2.78393e-006
Heightened Def Con from 2.78393e-006 +++++++++++++++to 2.78493e-006
Heightened Def Con from 2.78493e-006 +++++++++++++++to 2.78593e-006
Heightened Def Con from 2.78593e-006 +++++++++++++++to 2.78693e-006
Heightened Def Con from 2.78693e-006 +++++++++++++++to 2.78793e-006
Heightened Def Con from 2.78793e-006 +++++++++++++++to 2.78893e-006
Heightened Def Con from 2.78893e-006 +++++++++++++++to 2.78993e-006
Heightened Def Con from 2.78993e-006 +++++++++++++++to 2.79093e-006
Heightened Def Con from 2.79093e-006 +++++++++++++++to 2.79193e-006
Heightened Def Con from 2.79193e-006 +++++++++++++++to 2.79293e-006
Heightened Def Con from 2.79293e-006 +++++++++++++++to 2.79393e-006
Heightened Def Con from 2.79393e-006 +++++++++++++++to 2.79493e-006
Heightened Def Con from 2.79493e-006 +++++++++++++++to 2.79593e-006
Heightened Def Con from 2.79593e-006 +++++++++++++++to 2.79693e-006
Heightened Def Con from 2.79693e-006 +++++++++++++++to 2.79793e-006
Heightened Def Con from 2.79793e-006 +++++++++++++++to 2.79893e-006
Heightened Def Con from 2.79893e-006 +++++++++++++++to 2.79993e-006
Heightened Def Con from 2.79993e-006 +++++++++++++++to 2.80093e-006
Heightened Def Con from 2.80093e-006 +++++++++++++++to 2.80193e-006
Heightened Def Con from 2.80193e-006 +++++++++++++++to 2.80293e-006
Heightened Def Con from 2.80293e-006 +++++++++++++++to 2.80393e-006
Heightened Def Con from 2.80393e-006 +++++++++++++++to 2.80493e-006
Heightened Def Con from 2.80493e-006 +++++++++++++++to 2.80593e-006
Heightened Def Con from 2.80593e-006 +++++++++++++++to 2.80693e-006
Heightened Def Con from 2.80693e-006 +++++++++++++++to 2.80793e-006
Heightened Def Con from 2.80793e-006 +++++++++++++++to 2.80893e-006
Heightened Def Con from 2.80893e-006 +++++++++++++++to 2.80993e-006
Heightened Def Con from 2.80993e-006 +++++++++++++++to 2.81093e-006
Heightened Def Con from 2.81093e-006 +++++++++++++++to 2.81193e-006
Heightened Def Con from 2.81193e-006 +++++++++++++++to 2.81293e-006
Heightened Def Con from 2.81293e-006 +++++++++++++++to 2.81393e-006
Heightened Def Con from 2.81393e-006 +++++++++++++++to 2.81493e-006
Heightened Def Con from 2.81493e-006 +++++++++++++++to 2.81593e-006
Heightened Def Con from 2.81593e-006 +++++++++++++++to 2.81693e-006
Heightened Def Con from 2.81693e-006 +++++++++++++++to 2.81793e-006
Heightened Def Con from 2.81793e-006 +++++++++++++++to 2.81893e-006
Heightened Def Con from 2.81893e-006 +++++++++++++++to 2.81993e-006
Heightened Def Con from 2.81993e-006 +++++++++++++++to 2.82093e-006
Heightened Def Con from 2.82093e-006 +++++++++++++++to 2.82193e-006
Heightened Def Con from 2.82193e-006 +++++++++++++++to 2.82293e-006
Heightened Def Con from 2.82293e-006 +++++++++++++++to 2.82393e-006
Heightened Def Con from 2.82393e-006 +++++++++++++++to 2.82493e-006
Heightened Def Con from 2.82493e-006 +++++++++++++++to 2.82593e-006
Heightened Def Con from 2.82593e-006 +++++++++++++++to 2.82693e-006
Heightened Def Con from 2.82693e-006 +++++++++++++++to 2.82793e-006
Heightened Def Con from 2.82793e-006 +++++++++++++++to 2.82893e-006
Heightened Def Con from 2.82893e-006 +++++++++++++++to 2.82993e-006
Heightened Def Con from 2.82993e-006 +++++++++++++++to 2.83093e-006
Heightened Def Con from 2.83093e-006 +++++++++++++++to 2.83193e-006
Heightened Def Con from 2.83193e-006 +++++++++++++++to 2.83293e-006
Heightened Def Con from 2.83293e-006 +++++++++++++++to 2.83393e-006
Heightened Def Con from 2.83393e-006 +++++++++++++++to 2.83493e-006
Heightened Def Con from 2.83493e-006 +++++++++++++++to 2.83593e-006
Heightened Def Con from 2.83593e-006 +++++++++++++++to 2.83693e-006
Heightened Def Con from 2.83693e-006 +++++++++++++++to 2.83793e-006
Heightened Def Con from 2.83793e-006 +++++++++++++++to 2.83893e-006
Heightened Def Con from 2.83893e-006 +++++++++++++++to 2.83993e-006
Heightened Def Con from 2.83993e-006 +++++++++++++++to 2.84093e-006
Heightened Def Con from 2.84093e-006 +++++++++++++++to 2.84193e-006
Heightened Def Con from 2.84193e-006 +++++++++++++++to 2.84293e-006
Heightened Def Con from 2.84293e-006 +++++++++++++++to 2.84393e-006
Heightened Def Con from 2.84393e-006 +++++++++++++++to 2.84493e-006
Heightened Def Con from 2.84493e-006 +++++++++++++++to 2.84593e-006
Heightened Def Con from 2.84593e-006 +++++++++++++++to 2.84693e-006
Heightened Def Con from 2.84693e-006 +++++++++++++++to 2.84793e-006
Heightened Def Con from 2.84793e-006 +++++++++++++++to 2.84893e-006
Heightened Def Con from 2.84893e-006 +++++++++++++++to 2.84993e-006
Heightened Def Con from 2.84993e-006 +++++++++++++++to 2.85093e-006
Heightened Def Con from 2.85093e-006 +++++++++++++++to 2.85193e-006
Heightened Def Con from 2.85193e-006 +++++++++++++++to 2.85293e-006
Heightened Def Con from 2.85293e-006 +++++++++++++++to 2.85393e-006
Heightened Def Con from 2.85393e-006 +++++++++++++++to 2.85493e-006
Heightened Def Con from 2.85493e-006 +++++++++++++++to 2.85593e-006
Heightened Def Con from 2.85593e-006 +++++++++++++++to 2.85693e-006
Heightened Def Con from 2.85693e-006 +++++++++++++++to 2.85793e-006
Heightened Def Con from 2.85793e-006 +++++++++++++++to 2.85893e-006
Heightened Def Con from 2.85893e-006 +++++++++++++++to 2.85993e-006
Heightened Def Con from 2.85993e-006 +++++++++++++++to 2.86093e-006
Heightened Def Con from 2.86093e-006 +++++++++++++++to 2.86193e-006
Heightened Def Con from 2.86193e-006 +++++++++++++++to 2.86293e-006
Heightened Def Con from 2.86293e-006 +++++++++++++++to 2.86393e-006
Heightened Def Con from 2.86393e-006 +++++++++++++++to 2.86493e-006
Heightened Def Con from 2.86493e-006 +++++++++++++++to 2.86593e-006
Heightened Def Con from 2.86593e-006 +++++++++++++++to 2.86693e-006
Heightened Def Con from 2.86693e-006 +++++++++++++++to 2.86793e-006
Heightened Def Con from 2.86793e-006 +++++++++++++++to 2.86893e-006
Heightened Def Con from 2.86893e-006 +++++++++++++++to 2.86993e-006
Heightened Def Con from 2.86993e-006 +++++++++++++++to 2.87093e-006
Heightened Def Con from 2.87093e-006 +++++++++++++++to 2.87193e-006
Heightened Def Con from 2.87193e-006 +++++++++++++++to 2.87293e-006
Heightened Def Con from 2.87293e-006 +++++++++++++++to 2.87393e-006
Heightened Def Con from 2.87393e-006 +++++++++++++++to 2.87493e-006
Heightened Def Con from 2.87493e-006 +++++++++++++++to 2.87593e-006
Heightened Def Con from 2.87593e-006 +++++++++++++++to 2.87693e-006
Heightened Def Con from 2.87693e-006 +++++++++++++++to 2.87793e-006
Heightened Def Con from 2.87793e-006 +++++++++++++++to 2.87893e-006
Heightened Def Con from 2.87893e-006 +++++++++++++++to 2.87993e-006
Heightened Def Con from 2.87993e-006 +++++++++++++++to 2.88093e-006
Heightened Def Con from 2.88093e-006 +++++++++++++++to 2.88193e-006
Heightened Def Con from 2.88193e-006 +++++++++++++++to 2.88293e-006
Heightened Def Con from 2.88293e-006 +++++++++++++++to 2.88393e-006
Heightened Def Con from 2.88393e-006 +++++++++++++++to 2.88493e-006
Heightened Def Con from 2.88493e-006 +++++++++++++++to 2.88593e-006
Heightened Def Con from 2.88593e-006 +++++++++++++++to 2.88693e-006
Heightened Def Con from 2.88693e-006 +++++++++++++++to 2.88793e-006
Heightened Def Con from 2.88793e-006 +++++++++++++++to 2.88893e-006
Heightened Def Con from 2.88893e-006 +++++++++++++++to 2.88993e-006
Heightened Def Con from 2.88993e-006 +++++++++++++++to 2.89093e-006
Heightened Def Con from 2.89093e-006 +++++++++++++++to 2.89193e-006
Heightened Def Con from 2.89193e-006 +++++++++++++++to 2.89293e-006
Heightened Def Con from 2.89293e-006 +++++++++++++++to 2.89393e-006
Heightened Def Con from 2.89393e-006 +++++++++++++++to 2.89493e-006
Heightened Def Con from 2.89493e-006 +++++++++++++++to 2.89593e-006
Heightened Def Con from 2.89593e-006 +++++++++++++++to 2.89693e-006
Heightened Def Con from 2.89693e-006 +++++++++++++++to 2.89793e-006
Heightened Def Con from 2.89793e-006 +++++++++++++++to 2.89893e-006
Heightened Def Con from 2.89893e-006 +++++++++++++++to 2.89993e-006
Heightened Def Con from 2.89993e-006 +++++++++++++++to 2.90093e-006
Heightened Def Con from 2.90093e-006 +++++++++++++++to 2.90193e-006
Heightened Def Con from 2.90193e-006 +++++++++++++++to 2.90293e-006
Heightened Def Con from 2.90293e-006 +++++++++++++++to 2.90393e-006
Heightened Def Con from 2.90393e-006 +++++++++++++++to 2.90493e-006
Heightened Def Con from 2.90493e-006 +++++++++++++++to 2.90593e-006
Heightened Def Con from 2.90593e-006 +++++++++++++++to 2.90693e-006
Heightened Def Con from 2.90693e-006 +++++++++++++++to 2.90793e-006
Heightened Def Con from 2.90793e-006 +++++++++++++++to 2.90893e-006
Heightened Def Con from 2.90893e-006 +++++++++++++++to 2.90993e-006
Heightened Def Con from 2.90993e-006 +++++++++++++++to 2.91093e-006
Heightened Def Con from 2.91093e-006 +++++++++++++++to 2.91193e-006
Heightened Def Con from 2.91193e-006 +++++++++++++++to 2.91293e-006
Heightened Def Con from 2.91293e-006 +++++++++++++++to 2.91393e-006
Heightened Def Con from 2.91393e-006 +++++++++++++++to 2.91493e-006
Heightened Def Con from 2.91493e-006 +++++++++++++++to 2.91593e-006
Heightened Def Con from 2.91593e-006 +++++++++++++++to 2.91693e-006
Heightened Def Con from 2.91693e-006 +++++++++++++++to 2.91793e-006
Heightened Def Con from 2.91793e-006 +++++++++++++++to 2.91893e-006
Heightened Def Con from 2.91893e-006 +++++++++++++++to 2.91993e-006
Heightened Def Con from 2.91993e-006 +++++++++++++++to 2.92093e-006
Heightened Def Con from 2.92093e-006 +++++++++++++++to 2.92193e-006
Heightened Def Con from 2.92193e-006 +++++++++++++++to 2.92293e-006
Heightened Def Con from 2.92293e-006 +++++++++++++++to 2.92393e-006
Heightened Def Con from 2.92393e-006 +++++++++++++++to 2.92493e-006
Heightened Def Con from 2.92493e-006 +++++++++++++++to 2.92593e-006
Heightened Def Con from 2.92593e-006 +++++++++++++++to 2.92693e-006
Heightened Def Con from 2.92693e-006 +++++++++++++++to 2.92793e-006
Heightened Def Con from 2.92793e-006 +++++++++++++++to 2.92893e-006
Heightened Def Con from 2.92893e-006 +++++++++++++++to 2.92993e-006
Heightened Def Con from 2.92993e-006 +++++++++++++++to 2.93093e-006
Heightened Def Con from 2.93093e-006 +++++++++++++++to 2.93193e-006
Heightened Def Con from 2.93193e-006 +++++++++++++++to 2.93293e-006
Heightened Def Con from 2.93293e-006 +++++++++++++++to 2.93393e-006
Heightened Def Con from 2.93393e-006 +++++++++++++++to 2.93493e-006
Heightened Def Con from 2.93493e-006 +++++++++++++++to 2.93593e-006
Heightened Def Con from 2.93593e-006 +++++++++++++++to 2.93693e-006
Heightened Def Con from 2.93693e-006 +++++++++++++++to 2.93793e-006
Heightened Def Con from 2.93793e-006 +++++++++++++++to 2.93893e-006
Heightened Def Con from 2.93893e-006 +++++++++++++++to 2.93993e-006
Heightened Def Con from 2.93993e-006 +++++++++++++++to 2.94093e-006
Heightened Def Con from 2.94093e-006 +++++++++++++++to 2.94193e-006
Heightened Def Con from 2.94193e-006 +++++++++++++++to 2.94293e-006
Heightened Def Con from 2.94293e-006 +++++++++++++++to 2.94393e-006
Heightened Def Con from 2.94393e-006 +++++++++++++++to 2.94493e-006
Heightened Def Con from 2.94493e-006 +++++++++++++++to 2.94593e-006
Heightened Def Con from 2.94593e-006 +++++++++++++++to 2.94693e-006
Heightened Def Con from 2.94693e-006 +++++++++++++++to 2.94793e-006
Heightened Def Con from 2.94793e-006 +++++++++++++++to 2.94893e-006
Heightened Def Con from 2.94893e-006 +++++++++++++++to 2.94993e-006
Heightened Def Con from 2.94993e-006 +++++++++++++++to 2.95093e-006
Heightened Def Con from 2.95093e-006 +++++++++++++++to 2.95193e-006
Heightened Def Con from 2.95193e-006 +++++++++++++++to 2.95293e-006
Heightened Def Con from 2.95293e-006 +++++++++++++++to 2.95393e-006
Heightened Def Con from 2.95393e-006 +++++++++++++++to 2.95493e-006
Heightened Def Con from 2.95493e-006 +++++++++++++++to 2.95593e-006
Heightened Def Con from 2.95593e-006 +++++++++++++++to 2.95693e-006
Heightened Def Con from 2.95693e-006 +++++++++++++++to 2.95793e-006
Heightened Def Con from 2.95793e-006 +++++++++++++++to 2.95893e-006
Heightened Def Con from 2.95893e-006 +++++++++++++++to 2.95993e-006
Heightened Def Con from 2.95993e-006 +++++++++++++++to 2.96093e-006
Heightened Def Con from 2.96093e-006 +++++++++++++++to 2.96193e-006
Heightened Def Con from 2.96193e-006 +++++++++++++++to 2.96293e-006
Heightened Def Con from 2.96293e-006 +++++++++++++++to 2.96393e-006
Heightened Def Con from 2.96393e-006 +++++++++++++++to 2.96493e-006
Heightened Def Con from 2.96493e-006 +++++++++++++++to 2.96593e-006
Heightened Def Con from 2.96593e-006 +++++++++++++++to 2.96693e-006
Heightened Def Con from 2.96693e-006 +++++++++++++++to 2.96793e-006
Heightened Def Con from 2.96793e-006 +++++++++++++++to 2.96893e-006
Heightened Def Con from 2.96893e-006 +++++++++++++++to 2.96993e-006
Heightened Def Con from 2.96993e-006 +++++++++++++++to 2.97093e-006
Heightened Def Con from 2.97093e-006 +++++++++++++++to 2.97193e-006
Heightened Def Con from 2.97193e-006 +++++++++++++++to 2.97293e-006
Heightened Def Con from 2.97293e-006 +++++++++++++++to 2.97393e-006
Heightened Def Con from 2.97393e-006 +++++++++++++++to 2.97493e-006
Heightened Def Con from 2.97493e-006 +++++++++++++++to 2.97593e-006
Heightened Def Con from 2.97593e-006 +++++++++++++++to 2.97693e-006
Heightened Def Con from 2.97693e-006 +++++++++++++++to 2.97793e-006
Heightened Def Con from 2.97793e-006 +++++++++++++++to 2.97893e-006
Heightened Def Con from 2.97893e-006 +++++++++++++++to 2.97993e-006
Heightened Def Con from 2.97993e-006 +++++++++++++++to 2.98093e-006
Heightened Def Con from 2.98093e-006 +++++++++++++++to 2.98193e-006
Heightened Def Con from 2.98193e-006 +++++++++++++++to 2.98293e-006
Heightened Def Con from 2.98293e-006 +++++++++++++++to 2.98393e-006
Heightened Def Con from 2.98393e-006 +++++++++++++++to 2.98493e-006
Heightened Def Con from 2.98493e-006 +++++++++++++++to 2.98593e-006
Heightened Def Con from 2.98593e-006 +++++++++++++++to 2.98693e-006
Heightened Def Con from 2.98693e-006 +++++++++++++++to 2.98793e-006
Heightened Def Con from 2.98793e-006 +++++++++++++++to 2.98893e-006
Heightened Def Con from 2.98893e-006 +++++++++++++++to 2.98993e-006
Heightened Def Con from 2.98993e-006 +++++++++++++++to 2.99093e-006
Heightened Def Con from 2.99093e-006 +++++++++++++++to 2.99193e-006
Heightened Def Con from 2.99193e-006 +++++++++++++++to 2.99293e-006
Heightened Def Con from 2.99293e-006 +++++++++++++++to 2.99393e-006
Heightened Def Con from 2.99393e-006 +++++++++++++++to 2.99493e-006
Heightened Def Con from 2.99493e-006 +++++++++++++++to 2.99593e-006
Heightened Def Con from 2.99593e-006 +++++++++++++++to 2.99693e-006
Heightened Def Con from 2.99693e-006 +++++++++++++++to 2.99793e-006
Heightened Def Con from 2.99793e-006 +++++++++++++++to 2.99893e-006
Heightened Def Con from 2.99893e-006 +++++++++++++++to 2.99993e-006
Heightened Def Con from 2.99993e-006 +++++++++++++++to 3.00093e-006
Heightened Def Con from 3.00093e-006 +++++++++++++++to 3.00193e-006
Heightened Def Con from 3.00193e-006 +++++++++++++++to 3.00293e-006
Heightened Def Con from 3.00293e-006 +++++++++++++++to 3.00393e-006
Heightened Def Con from 3.00393e-006 +++++++++++++++to 3.00493e-006
Heightened Def Con from 3.00493e-006 +++++++++++++++to 3.00593e-006
Heightened Def Con from 3.00593e-006 +++++++++++++++to 3.00693e-006
Heightened Def Con from 3.00693e-006 +++++++++++++++to 3.00793e-006
Heightened Def Con from 3.00793e-006 +++++++++++++++to 3.00893e-006
Heightened Def Con from 3.00893e-006 +++++++++++++++to 3.00993e-006
Heightened Def Con from 3.00993e-006 +++++++++++++++to 3.01093e-006
Heightened Def Con from 3.01093e-006 +++++++++++++++to 3.01193e-006
Heightened Def Con from 3.01193e-006 +++++++++++++++to 3.01293e-006
Heightened Def Con from 3.01293e-006 +++++++++++++++to 3.01393e-006
Heightened Def Con from 3.01393e-006 +++++++++++++++to 3.01493e-006
Heightened Def Con from 3.01493e-006 +++++++++++++++to 3.01593e-006
Heightened Def Con from 3.01593e-006 +++++++++++++++to 3.01693e-006
Heightened Def Con from 3.01693e-006 +++++++++++++++to 3.01793e-006
Heightened Def Con from 3.01793e-006 +++++++++++++++to 3.01893e-006
Heightened Def Con from 3.01893e-006 +++++++++++++++to 3.01993e-006
Heightened Def Con from 3.01993e-006 +++++++++++++++to 3.02093e-006
Heightened Def Con from 3.02093e-006 +++++++++++++++to 3.02193e-006
Heightened Def Con from 3.02193e-006 +++++++++++++++to 3.02293e-006
Heightened Def Con from 3.02293e-006 +++++++++++++++to 3.02393e-006
Heightened Def Con from 3.02393e-006 +++++++++++++++to 3.02493e-006
Heightened Def Con from 3.02493e-006 +++++++++++++++to 3.02593e-006
Heightened Def Con from 3.02593e-006 +++++++++++++++to 3.02693e-006
Heightened Def Con from 3.02693e-006 +++++++++++++++to 3.02793e-006
Heightened Def Con from 3.02793e-006 +++++++++++++++to 3.02893e-006
Heightened Def Con from 3.02893e-006 +++++++++++++++to 3.02993e-006
Heightened Def Con from 3.02993e-006 +++++++++++++++to 3.03093e-006
Heightened Def Con from 3.03093e-006 +++++++++++++++to 3.03193e-006
Heightened Def Con from 3.03193e-006 +++++++++++++++to 3.03293e-006
Heightened Def Con from 3.03293e-006 +++++++++++++++to 3.03393e-006
Heightened Def Con from 3.03393e-006 +++++++++++++++to 3.03493e-006
Heightened Def Con from 3.03493e-006 +++++++++++++++to 3.03593e-006
Heightened Def Con from 3.03593e-006 +++++++++++++++to 3.03693e-006
Heightened Def Con from 3.03693e-006 +++++++++++++++to 3.03793e-006
Heightened Def Con from 3.03793e-006 +++++++++++++++to 3.03893e-006
Heightened Def Con from 3.03893e-006 +++++++++++++++to 3.03993e-006
Heightened Def Con from 3.03993e-006 +++++++++++++++to 3.04093e-006
Heightened Def Con from 3.04093e-006 +++++++++++++++to 3.04193e-006
Heightened Def Con from 3.04193e-006 +++++++++++++++to 3.04293e-006
Heightened Def Con from 3.04293e-006 +++++++++++++++to 3.04393e-006
Heightened Def Con from 3.04393e-006 +++++++++++++++to 3.04493e-006
Heightened Def Con from 3.04493e-006 +++++++++++++++to 3.04593e-006
Heightened Def Con from 3.04593e-006 +++++++++++++++to 3.04693e-006
Heightened Def Con from 3.04693e-006 +++++++++++++++to 3.04793e-006
Heightened Def Con from 3.04793e-006 +++++++++++++++to 3.04893e-006
Heightened Def Con from 3.04893e-006 +++++++++++++++to 3.04993e-006
Heightened Def Con from 3.04993e-006 +++++++++++++++to 3.05093e-006
Heightened Def Con from 3.05093e-006 +++++++++++++++to 3.05193e-006
Heightened Def Con from 3.05193e-006 +++++++++++++++to 3.05293e-006
Heightened Def Con from 3.05293e-006 +++++++++++++++to 3.05393e-006
Heightened Def Con from 3.05393e-006 +++++++++++++++to 3.05493e-006
Heightened Def Con from 3.05493e-006 +++++++++++++++to 3.05593e-006
Heightened Def Con from 3.05593e-006 +++++++++++++++to 3.05693e-006
Heightened Def Con from 3.05693e-006 +++++++++++++++to 3.05793e-006
Heightened Def Con from 3.05793e-006 +++++++++++++++to 3.05893e-006
Heightened Def Con from 3.05893e-006 +++++++++++++++to 3.05993e-006
Heightened Def Con from 3.05993e-006 +++++++++++++++to 3.06093e-006
Heightened Def Con from 3.06093e-006 +++++++++++++++to 3.06193e-006
Heightened Def Con from 3.06193e-006 +++++++++++++++to 3.06293e-006
Heightened Def Con from 3.06293e-006 +++++++++++++++to 3.06393e-006
Heightened Def Con from 3.06393e-006 +++++++++++++++to 3.06493e-006
Heightened Def Con from 3.06493e-006 +++++++++++++++to 3.06593e-006
Heightened Def Con from 3.06593e-006 +++++++++++++++to 3.06693e-006
Heightened Def Con from 3.06693e-006 +++++++++++++++to 3.06793e-006
Heightened Def Con from 3.06793e-006 +++++++++++++++to 3.06893e-006
Heightened Def Con from 3.06893e-006 +++++++++++++++to 3.06993e-006
Heightened Def Con from 3.06993e-006 +++++++++++++++to 3.07093e-006
Heightened Def Con from 3.07093e-006 +++++++++++++++to 3.07193e-006
Heightened Def Con from 3.07193e-006 +++++++++++++++to 3.07293e-006
Heightened Def Con from 3.07293e-006 +++++++++++++++to 3.07393e-006
Heightened Def Con from 3.07393e-006 +++++++++++++++to 3.07493e-006
Heightened Def Con from 3.07493e-006 +++++++++++++++to 3.07593e-006
Heightened Def Con from 3.07593e-006 +++++++++++++++to 3.07693e-006
Heightened Def Con from 3.07693e-006 +++++++++++++++to 3.07793e-006
Heightened Def Con from 3.07793e-006 +++++++++++++++to 3.07893e-006
Heightened Def Con from 3.07893e-006 +++++++++++++++to 3.07993e-006
Heightened Def Con from 3.07993e-006 +++++++++++++++to 3.08093e-006
Heightened Def Con from 3.08093e-006 +++++++++++++++to 3.08193e-006
Heightened Def Con from 3.08193e-006 +++++++++++++++to 3.08293e-006
Heightened Def Con from 3.08293e-006 +++++++++++++++to 3.08393e-006
Heightened Def Con from 3.08393e-006 +++++++++++++++to 3.08493e-006
Heightened Def Con from 3.08493e-006 +++++++++++++++to 3.08593e-006
Heightened Def Con from 3.08593e-006 +++++++++++++++to 3.08693e-006
Heightened Def Con from 3.08693e-006 +++++++++++++++to 3.08793e-006
Heightened Def Con from 3.08793e-006 +++++++++++++++to 3.08893e-006
Heightened Def Con from 3.08893e-006 +++++++++++++++to 3.08993e-006
Heightened Def Con from 3.08993e-006 +++++++++++++++to 3.09093e-006
Heightened Def Con from 3.09093e-006 +++++++++++++++to 3.09193e-006
Heightened Def Con from 3.09193e-006 +++++++++++++++to 3.09293e-006
Heightened Def Con from 3.09293e-006 +++++++++++++++to 3.09393e-006
Heightened Def Con from 3.09393e-006 +++++++++++++++to 3.09493e-006
Heightened Def Con from 3.09493e-006 +++++++++++++++to 3.09593e-006
Heightened Def Con from 3.09593e-006 +++++++++++++++to 3.09693e-006
Heightened Def Con from 3.09693e-006 +++++++++++++++to 3.09793e-006
Heightened Def Con from 3.09793e-006 +++++++++++++++to 3.09893e-006
Heightened Def Con from 3.09893e-006 +++++++++++++++to 3.09993e-006
Heightened Def Con from 3.09993e-006 +++++++++++++++to 3.10093e-006
Heightened Def Con from 3.10093e-006 +++++++++++++++to 3.10193e-006
Heightened Def Con from 3.10193e-006 +++++++++++++++to 3.10293e-006
Heightened Def Con from 3.10293e-006 +++++++++++++++to 3.10393e-006
Heightened Def Con from 3.10393e-006 +++++++++++++++to 3.10493e-006
Heightened Def Con from 3.10493e-006 +++++++++++++++to 3.10593e-006
Heightened Def Con from 3.10593e-006 +++++++++++++++to 3.10693e-006
Heightened Def Con from 3.10693e-006 +++++++++++++++to 3.10793e-006
Heightened Def Con from 3.10793e-006 +++++++++++++++to 3.10893e-006
Heightened Def Con from 3.10893e-006 +++++++++++++++to 3.10993e-006
Heightened Def Con from 3.10993e-006 +++++++++++++++to 3.11093e-006
Heightened Def Con from 3.11093e-006 +++++++++++++++to 3.11193e-006
Heightened Def Con from 3.11193e-006 +++++++++++++++to 3.11293e-006
Heightened Def Con from 3.11293e-006 +++++++++++++++to 3.11393e-006
Heightened Def Con from 3.11393e-006 +++++++++++++++to 3.11493e-006
Heightened Def Con from 3.11493e-006 +++++++++++++++to 3.11593e-006
Heightened Def Con from 3.11593e-006 +++++++++++++++to 3.11693e-006
Heightened Def Con from 3.11693e-006 +++++++++++++++to 3.11793e-006
Heightened Def Con from 3.11793e-006 +++++++++++++++to 3.11893e-006
Heightened Def Con from 3.11893e-006 +++++++++++++++to 3.11993e-006
Heightened Def Con from 3.11993e-006 +++++++++++++++to 3.12093e-006
Heightened Def Con from 3.12093e-006 +++++++++++++++to 3.12193e-006
Heightened Def Con from 3.12193e-006 +++++++++++++++to 3.12293e-006
Heightened Def Con from 3.12293e-006 +++++++++++++++to 3.12393e-006
Heightened Def Con from 3.12393e-006 +++++++++++++++to 3.12493e-006
Heightened Def Con from 3.12493e-006 +++++++++++++++to 3.12593e-006
Heightened Def Con from 3.12593e-006 +++++++++++++++to 3.12693e-006
Heightened Def Con from 3.12693e-006 +++++++++++++++to 3.12793e-006
Heightened Def Con from 3.12793e-006 +++++++++++++++to 3.12893e-006
Heightened Def Con from 3.12893e-006 +++++++++++++++to 3.12993e-006
Heightened Def Con from 3.12993e-006 +++++++++++++++to 3.13093e-006
Heightened Def Con from 3.13093e-006 +++++++++++++++to 3.13193e-006
Heightened Def Con from 3.13193e-006 +++++++++++++++to 3.13293e-006
Heightened Def Con from 3.13293e-006 +++++++++++++++to 3.13393e-006
Heightened Def Con from 3.13393e-006 +++++++++++++++to 3.13493e-006
Heightened Def Con from 3.13493e-006 +++++++++++++++to 3.13593e-006
Heightened Def Con from 3.13593e-006 +++++++++++++++to 3.13693e-006
Heightened Def Con from 3.13693e-006 +++++++++++++++to 3.13793e-006
Heightened Def Con from 3.13793e-006 +++++++++++++++to 3.13893e-006
Heightened Def Con from 3.13893e-006 +++++++++++++++to 3.13993e-006
Heightened Def Con from 3.13993e-006 +++++++++++++++to 3.14093e-006
Heightened Def Con from 3.14093e-006 +++++++++++++++to 3.14193e-006
Heightened Def Con from 3.14193e-006 +++++++++++++++to 3.14293e-006
Heightened Def Con from 3.14293e-006 +++++++++++++++to 3.14393e-006
Heightened Def Con from 3.14393e-006 +++++++++++++++to 3.14493e-006
Heightened Def Con from 3.14493e-006 +++++++++++++++to 3.14593e-006
Heightened Def Con from 3.14593e-006 +++++++++++++++to 3.14693e-006
Heightened Def Con from 3.14693e-006 +++++++++++++++to 3.14793e-006
Heightened Def Con from 3.14793e-006 +++++++++++++++to 3.14893e-006
Heightened Def Con from 3.14893e-006 +++++++++++++++to 3.14993e-006
Heightened Def Con from 3.14993e-006 +++++++++++++++to 3.15093e-006
Heightened Def Con from 3.15093e-006 +++++++++++++++to 3.15193e-006
Heightened Def Con from 3.15193e-006 +++++++++++++++to 3.15293e-006
Heightened Def Con from 3.15293e-006 +++++++++++++++to 3.15393e-006
Heightened Def Con from 3.15393e-006 +++++++++++++++to 3.15493e-006
Heightened Def Con from 3.15493e-006 +++++++++++++++to 3.15593e-006
Heightened Def Con from 3.15593e-006 +++++++++++++++to 3.15693e-006
Heightened Def Con from 3.15693e-006 +++++++++++++++to 3.15793e-006
Heightened Def Con from 3.15793e-006 +++++++++++++++to 3.15893e-006
Heightened Def Con from 3.15893e-006 +++++++++++++++to 3.15993e-006
Heightened Def Con from 3.15993e-006 +++++++++++++++to 3.16093e-006
Heightened Def Con from 3.16093e-006 +++++++++++++++to 3.16193e-006
Heightened Def Con from 3.16193e-006 +++++++++++++++to 3.16293e-006
Heightened Def Con from 3.16293e-006 +++++++++++++++to 3.16393e-006
Heightened Def Con from 3.16393e-006 +++++++++++++++to 3.16493e-006
Heightened Def Con from 3.16493e-006 +++++++++++++++to 3.16593e-006
Heightened Def Con from 3.16593e-006 +++++++++++++++to 3.16693e-006
Heightened Def Con from 3.16693e-006 +++++++++++++++to 3.16793e-006
Heightened Def Con from 3.16793e-006 +++++++++++++++to 3.16893e-006
Heightened Def Con from 3.16893e-006 +++++++++++++++to 3.16993e-006
Heightened Def Con from 3.16993e-006 +++++++++++++++to 3.17093e-006
Heightened Def Con from 3.17093e-006 +++++++++++++++to 3.17193e-006
Heightened Def Con from 3.17193e-006 +++++++++++++++to 3.17293e-006
Heightened Def Con from 3.17293e-006 +++++++++++++++to 3.17393e-006
Heightened Def Con from 3.17393e-006 +++++++++++++++to 3.17493e-006
Heightened Def Con from 3.17493e-006 +++++++++++++++to 3.17593e-006
Heightened Def Con from 3.17593e-006 +++++++++++++++to 3.17693e-006
Heightened Def Con from 3.17693e-006 +++++++++++++++to 3.17793e-006
Heightened Def Con from 3.17793e-006 +++++++++++++++to 3.17893e-006
Heightened Def Con from 3.17893e-006 +++++++++++++++to 3.17993e-006
Heightened Def Con from 3.17993e-006 +++++++++++++++to 3.18093e-006
Heightened Def Con from 3.18093e-006 +++++++++++++++to 3.18193e-006
Heightened Def Con from 3.18193e-006 +++++++++++++++to 3.18293e-006
Heightened Def Con from 3.18293e-006 +++++++++++++++to 3.18393e-006
Heightened Def Con from 3.18393e-006 +++++++++++++++to 3.18493e-006
Heightened Def Con from 3.18493e-006 +++++++++++++++to 3.18593e-006
Heightened Def Con from 3.18593e-006 +++++++++++++++to 3.18693e-006
Heightened Def Con from 3.18693e-006 +++++++++++++++to 3.18793e-006
Heightened Def Con from 3.18793e-006 +++++++++++++++to 3.18893e-006
Heightened Def Con from 3.18893e-006 +++++++++++++++to 3.18993e-006
Heightened Def Con from 3.18993e-006 +++++++++++++++to 3.19093e-006
Heightened Def Con from 3.19093e-006 +++++++++++++++to 3.19193e-006
Heightened Def Con from 3.19193e-006 +++++++++++++++to 3.19293e-006
Heightened Def Con from 3.19293e-006 +++++++++++++++to 3.19393e-006
Heightened Def Con from 3.19393e-006 +++++++++++++++to 3.19493e-006
Heightened Def Con from 3.19493e-006 +++++++++++++++to 3.19593e-006
Heightened Def Con from 3.19593e-006 +++++++++++++++to 3.19693e-006
Heightened Def Con from 3.19693e-006 +++++++++++++++to 3.19793e-006
Heightened Def Con from 3.19793e-006 +++++++++++++++to 3.19893e-006
Heightened Def Con from 3.19893e-006 +++++++++++++++to 3.19993e-006
Heightened Def Con from 3.19993e-006 +++++++++++++++to 3.20093e-006
Heightened Def Con from 3.20093e-006 +++++++++++++++to 3.20193e-006
Heightened Def Con from 3.20193e-006 +++++++++++++++to 3.20293e-006
Heightened Def Con from 3.20293e-006 +++++++++++++++to 3.20393e-006
Heightened Def Con from 3.20393e-006 +++++++++++++++to 3.20493e-006
Heightened Def Con from 3.20493e-006 +++++++++++++++to 3.20593e-006
Heightened Def Con from 3.20593e-006 +++++++++++++++to 3.20693e-006
Heightened Def Con from 3.20693e-006 +++++++++++++++to 3.20793e-006
Heightened Def Con from 3.20793e-006 +++++++++++++++to 3.20893e-006
Heightened Def Con from 3.20893e-006 +++++++++++++++to 3.20993e-006
Heightened Def Con from 3.20993e-006 +++++++++++++++to 3.21093e-006
Heightened Def Con from 3.21093e-006 +++++++++++++++to 3.21193e-006
Heightened Def Con from 3.21193e-006 +++++++++++++++to 3.21293e-006
Heightened Def Con from 3.21293e-006 +++++++++++++++to 3.21393e-006
Heightened Def Con from 3.21393e-006 +++++++++++++++to 3.21493e-006
Heightened Def Con from 3.21493e-006 +++++++++++++++to 3.21593e-006
Heightened Def Con from 3.21593e-006 +++++++++++++++to 3.21693e-006
Heightened Def Con from 3.21693e-006 +++++++++++++++to 3.21793e-006
Heightened Def Con from 3.21793e-006 +++++++++++++++to 3.21893e-006
Heightened Def Con from 3.21893e-006 +++++++++++++++to 3.21993e-006
Heightened Def Con from 3.21993e-006 +++++++++++++++to 3.22093e-006
Heightened Def Con from 3.22093e-006 +++++++++++++++to 3.22193e-006
Heightened Def Con from 3.22193e-006 +++++++++++++++to 3.22293e-006
Heightened Def Con from 3.22293e-006 +++++++++++++++to 3.22393e-006
Heightened Def Con from 3.22393e-006 +++++++++++++++to 3.22493e-006
Heightened Def Con from 3.22493e-006 +++++++++++++++to 3.22593e-006
Heightened Def Con from 3.22593e-006 +++++++++++++++to 3.22693e-006
Heightened Def Con from 3.22693e-006 +++++++++++++++to 3.22793e-006
Heightened Def Con from 3.22793e-006 +++++++++++++++to 3.22893e-006
Heightened Def Con from 3.22893e-006 +++++++++++++++to 3.22993e-006
Heightened Def Con from 3.22993e-006 +++++++++++++++to 3.23093e-006
Heightened Def Con from 3.23093e-006 +++++++++++++++to 3.23193e-006
Heightened Def Con from 3.23193e-006 +++++++++++++++to 3.23293e-006
Heightened Def Con from 3.23293e-006 +++++++++++++++to 3.23393e-006
Heightened Def Con from 3.23393e-006 +++++++++++++++to 3.23493e-006
Heightened Def Con from 3.23493e-006 +++++++++++++++to 3.23593e-006
Heightened Def Con from 3.23593e-006 +++++++++++++++to 3.23693e-006
Heightened Def Con from 3.23693e-006 +++++++++++++++to 3.23793e-006
Heightened Def Con from 3.23793e-006 +++++++++++++++to 3.23893e-006
Heightened Def Con from 3.23893e-006 +++++++++++++++to 3.23993e-006
Heightened Def Con from 3.23993e-006 +++++++++++++++to 3.24093e-006
Heightened Def Con from 3.24093e-006 +++++++++++++++to 3.24193e-006
Heightened Def Con from 3.24193e-006 +++++++++++++++to 3.24293e-006
Heightened Def Con from 3.24293e-006 +++++++++++++++to 3.24393e-006
Heightened Def Con from 3.24393e-006 +++++++++++++++to 3.24493e-006
Heightened Def Con from 3.24493e-006 +++++++++++++++to 3.24593e-006
Heightened Def Con from 3.24593e-006 +++++++++++++++to 3.24693e-006
Heightened Def Con from 3.24693e-006 +++++++++++++++to 3.24793e-006
Heightened Def Con from 3.24793e-006 +++++++++++++++to 3.24893e-006
Heightened Def Con from 3.24893e-006 +++++++++++++++to 3.24993e-006
Heightened Def Con from 3.24993e-006 +++++++++++++++to 3.25093e-006
Heightened Def Con from 3.25093e-006 +++++++++++++++to 3.25193e-006
Heightened Def Con from 3.25193e-006 +++++++++++++++to 3.25293e-006
Heightened Def Con from 3.25293e-006 +++++++++++++++to 3.25393e-006
Heightened Def Con from 3.25393e-006 +++++++++++++++to 3.25493e-006
Heightened Def Con from 3.25493e-006 +++++++++++++++to 3.25593e-006
Heightened Def Con from 3.25593e-006 +++++++++++++++to 3.25693e-006
Heightened Def Con from 3.25693e-006 +++++++++++++++to 3.25793e-006
Heightened Def Con from 3.25793e-006 +++++++++++++++to 3.25893e-006
Heightened Def Con from 3.25893e-006 +++++++++++++++to 3.25993e-006
Heightened Def Con from 3.25993e-006 +++++++++++++++to 3.26093e-006
Heightened Def Con from 3.26093e-006 +++++++++++++++to 3.26193e-006
Heightened Def Con from 3.26193e-006 +++++++++++++++to 3.26293e-006
Heightened Def Con from 3.26293e-006 +++++++++++++++to 3.26393e-006
Heightened Def Con from 3.26393e-006 +++++++++++++++to 3.26493e-006
Heightened Def Con from 3.26493e-006 +++++++++++++++to 3.26593e-006
Heightened Def Con from 3.26593e-006 +++++++++++++++to 3.26693e-006
Heightened Def Con from 3.26693e-006 +++++++++++++++to 3.26793e-006
Heightened Def Con from 3.26793e-006 +++++++++++++++to 3.26893e-006
Heightened Def Con from 3.26893e-006 +++++++++++++++to 3.26993e-006
Heightened Def Con from 3.26993e-006 +++++++++++++++to 3.27093e-006
Heightened Def Con from 3.27093e-006 +++++++++++++++to 3.27193e-006
Heightened Def Con from 3.27193e-006 +++++++++++++++to 3.27293e-006
Heightened Def Con from 3.27293e-006 +++++++++++++++to 3.27393e-006
Heightened Def Con from 3.27393e-006 +++++++++++++++to 3.27493e-006
Heightened Def Con from 3.27493e-006 +++++++++++++++to 3.27593e-006
Heightened Def Con from 3.27593e-006 +++++++++++++++to 3.27693e-006
Heightened Def Con from 3.27693e-006 +++++++++++++++to 3.27793e-006
Heightened Def Con from 3.27793e-006 +++++++++++++++to 3.27893e-006
Heightened Def Con from 3.27893e-006 +++++++++++++++to 3.27993e-006
Heightened Def Con from 3.27993e-006 +++++++++++++++to 3.28093e-006
Heightened Def Con from 3.28093e-006 +++++++++++++++to 3.28193e-006
Heightened Def Con from 3.28193e-006 +++++++++++++++to 3.28393e-006
Heightened Def Con from 3.28393e-006 +++++++++++++++to 3.28593e-006
Heightened Def Con from 3.28593e-006 +++++++++++++++to 3.28793e-006
Heightened Def Con from 3.28793e-006 +++++++++++++++to 3.28993e-006
Heightened Def Con from 3.28993e-006 +++++++++++++++to 3.29193e-006
Heightened Def Con from 3.29193e-006 +++++++++++++++to 3.29393e-006
Heightened Def Con from 3.29393e-006 +++++++++++++++to 3.29593e-006
Heightened Def Con from 3.29593e-006 +++++++++++++++to 3.29793e-006
Heightened Def Con from 3.29793e-006 +++++++++++++++to 3.29993e-006
Heightened Def Con from 3.29993e-006 +++++++++++++++to 3.30193e-006
Heightened Def Con from 3.30193e-006 +++++++++++++++to 3.30393e-006
Heightened Def Con from 3.30393e-006 +++++++++++++++to 3.30593e-006
Heightened Def Con from 3.30593e-006 +++++++++++++++to 3.30793e-006
Heightened Def Con from 3.30793e-006 +++++++++++++++to 3.30993e-006
Heightened Def Con from 3.30993e-006 +++++++++++++++to 3.31193e-006
Heightened Def Con from 3.31193e-006 +++++++++++++++to 3.31393e-006
Heightened Def Con from 3.31393e-006 +++++++++++++++to 3.31593e-006
Heightened Def Con from 3.31593e-006 +++++++++++++++to 3.31893e-006
Heightened Def Con from 3.31893e-006 +++++++++++++++to 3.32193e-006
Heightened Def Con from 3.32193e-006 +++++++++++++++to 3.32493e-006
Heightened Def Con from 3.32493e-006 +++++++++++++++to 3.32793e-006
Heightened Def Con from 3.32793e-006 +++++++++++++++to 3.33093e-006
Heightened Def Con from 3.33093e-006 +++++++++++++++to 3.33393e-006
Heightened Def Con from 3.33393e-006 +++++++++++++++to 3.33693e-006
Heightened Def Con from 3.33693e-006 +++++++++++++++to 3.33993e-006
Heightened Def Con from 3.33993e-006 +++++++++++++++to 3.34293e-006
Heightened Def Con from 3.34293e-006 +++++++++++++++to 3.34593e-006
Heightened Def Con from 3.34593e-006 +++++++++++++++to 3.34893e-006
Heightened Def Con from 3.34893e-006 +++++++++++++++to 3.35193e-006
Heightened Def Con from 3.35193e-006 +++++++++++++++to 3.35493e-006
Heightened Def Con from 3.35493e-006 +++++++++++++++to 3.35793e-006
Heightened Def Con from 3.35793e-006 +++++++++++++++to 3.36093e-006
Heightened Def Con from 3.36093e-006 +++++++++++++++to 3.36393e-006
Heightened Def Con from 3.36393e-006 +++++++++++++++to 3.36693e-006
Heightened Def Con from 3.36693e-006 +++++++++++++++to 3.36993e-006
Heightened Def Con from 3.36993e-006 +++++++++++++++to 3.37293e-006
Heightened Def Con from 3.37293e-006 +++++++++++++++to 3.37593e-006
Heightened Def Con from 3.37593e-006 +++++++++++++++to 3.37893e-006
Heightened Def Con from 3.37893e-006 +++++++++++++++to 3.38193e-006
Heightened Def Con from 3.38193e-006 +++++++++++++++to 3.38393e-006
Heightened Def Con from 3.38393e-006 +++++++++++++++to 3.38593e-006
Heightened Def Con from 3.38593e-006 +++++++++++++++to 3.38793e-006
Heightened Def Con from 3.38793e-006 +++++++++++++++to 3.38993e-006
Heightened Def Con from 3.38993e-006 +++++++++++++++to 3.39193e-006
Heightened Def Con from 3.39193e-006 +++++++++++++++to 3.39393e-006
Heightened Def Con from 3.39393e-006 +++++++++++++++to 3.39593e-006
Heightened Def Con from 3.39593e-006 +++++++++++++++to 3.39793e-006
Heightened Def Con from 3.39793e-006 +++++++++++++++to 3.39993e-006
Heightened Def Con from 3.39993e-006 +++++++++++++++to 3.40193e-006
Heightened Def Con from 3.40193e-006 +++++++++++++++to 3.40393e-006
Heightened Def Con from 3.40393e-006 +++++++++++++++to 3.40593e-006
Heightened Def Con from 3.40593e-006 +++++++++++++++to 3.40793e-006
Heightened Def Con from 3.40793e-006 +++++++++++++++to 3.40993e-006
Heightened Def Con from 3.40993e-006 +++++++++++++++to 3.41193e-006
Heightened Def Con from 3.41193e-006 +++++++++++++++to 3.41393e-006
Heightened Def Con from 3.41393e-006 +++++++++++++++to 3.41593e-006
Heightened Def Con from 3.41593e-006 +++++++++++++++to 3.41693e-006
Heightened Def Con from 3.41693e-006 +++++++++++++++to 3.41793e-006
Heightened Def Con from 3.41793e-006 +++++++++++++++to 3.41893e-006
Heightened Def Con from 3.41893e-006 +++++++++++++++to 3.41993e-006
Heightened Def Con from 3.41993e-006 +++++++++++++++to 3.42093e-006
Heightened Def Con from 3.42093e-006 +++++++++++++++to 3.42193e-006
Heightened Def Con from 3.42193e-006 +++++++++++++++to 3.42293e-006
Heightened Def Con from 3.42293e-006 +++++++++++++++to 3.42393e-006
Heightened Def Con from 3.42393e-006 +++++++++++++++to 3.42493e-006
Heightened Def Con from 3.42493e-006 +++++++++++++++to 3.42693e-006
Heightened Def Con from 3.42693e-006 +++++++++++++++to 3.43006e-006
Heightened Def Con from 3.43006e-006 +++++++++++++++to 3.43081e-006
Heightened Def Con from 3.43081e-006 +++++++++++++++to 3.43481e-006
Heightened Def Con from 3.43481e-006 +++++++++++++++to 3.43581e-006
Heightened Def Con from 3.43581e-006 +++++++++++++++to 3.43681e-006
Heightened Def Con from 3.43681e-006 +++++++++++++++to 3.43781e-006
Heightened Def Con from 3.43781e-006 +++++++++++++++to 3.43881e-006
Heightened Def Con from 3.43881e-006 +++++++++++++++to 3.43981e-006
Heightened Def Con from 3.43981e-006 +++++++++++++++to 3.44081e-006
Heightened Def Con from 3.44081e-006 +++++++++++++++to 3.44181e-006
Heightened Def Con from 3.44181e-006 +++++++++++++++to 3.44281e-006
Heightened Def Con from 3.44281e-006 +++++++++++++++to 3.44381e-006
Heightened Def Con from 3.44381e-006 +++++++++++++++to 3.44481e-006
Heightened Def Con from 3.44481e-006 +++++++++++++++to 3.44581e-006
Heightened Def Con from 3.44581e-006 +++++++++++++++to 3.44681e-006
Heightened Def Con from 3.44681e-006 +++++++++++++++to 3.44781e-006
Heightened Def Con from 3.44781e-006 +++++++++++++++to 3.44881e-006
Heightened Def Con from 3.44881e-006 +++++++++++++++to 3.44981e-006
Heightened Def Con from 3.44981e-006 +++++++++++++++to 3.45081e-006
Heightened Def Con from 3.45081e-006 +++++++++++++++to 3.45181e-006
Heightened Def Con from 3.45181e-006 +++++++++++++++to 3.45281e-006
Heightened Def Con from 3.45281e-006 +++++++++++++++to 3.45381e-006
Heightened Def Con from 3.45381e-006 +++++++++++++++to 3.45481e-006
Heightened Def Con from 3.45481e-006 +++++++++++++++to 3.45581e-006
Heightened Def Con from 3.45581e-006 +++++++++++++++to 3.45681e-006
Heightened Def Con from 3.45681e-006 +++++++++++++++to 3.45781e-006
Heightened Def Con from 3.45781e-006 +++++++++++++++to 3.45881e-006
Heightened Def Con from 3.45881e-006 +++++++++++++++to 3.45981e-006
Heightened Def Con from 3.45981e-006 +++++++++++++++to 3.46081e-006
Heightened Def Con from 3.46081e-006 +++++++++++++++to 3.46181e-006
Heightened Def Con from 3.46181e-006 +++++++++++++++to 3.46281e-006
Heightened Def Con from 3.46281e-006 +++++++++++++++to 3.46381e-006
Heightened Def Con from 3.46381e-006 +++++++++++++++to 3.46481e-006
Heightened Def Con from 3.46481e-006 +++++++++++++++to 3.46581e-006
Heightened Def Con from 3.46581e-006 +++++++++++++++to 3.46681e-006
Heightened Def Con from 3.46681e-006 +++++++++++++++to 3.46781e-006
Heightened Def Con from 3.46781e-006 +++++++++++++++to 3.46881e-006
Heightened Def Con from 3.46881e-006 +++++++++++++++to 3.46981e-006
Heightened Def Con from 3.46981e-006 +++++++++++++++to 3.47081e-006
Heightened Def Con from 3.47081e-006 +++++++++++++++to 3.47181e-006
Heightened Def Con from 3.47181e-006 +++++++++++++++to 3.47281e-006
Heightened Def Con from 3.47281e-006 +++++++++++++++to 3.47381e-006
Heightened Def Con from 3.47381e-006 +++++++++++++++to 3.47481e-006
Heightened Def Con from 3.47481e-006 +++++++++++++++to 3.47581e-006
Heightened Def Con from 3.47581e-006 +++++++++++++++to 3.47681e-006
Heightened Def Con from 3.47681e-006 +++++++++++++++to 3.47781e-006
Heightened Def Con from 3.47781e-006 +++++++++++++++to 3.47881e-006
Heightened Def Con from 3.47881e-006 +++++++++++++++to 3.47981e-006
Heightened Def Con from 3.47981e-006 +++++++++++++++to 3.48081e-006
Heightened Def Con from 3.48081e-006 +++++++++++++++to 3.48181e-006
Heightened Def Con from 3.48181e-006 +++++++++++++++to 3.48281e-006
Heightened Def Con from 3.48281e-006 +++++++++++++++to 3.48381e-006
Heightened Def Con from 3.48381e-006 +++++++++++++++to 3.48481e-006
Heightened Def Con from 3.48481e-006 +++++++++++++++to 3.48581e-006
Heightened Def Con from 3.48581e-006 +++++++++++++++to 3.48681e-006
Heightened Def Con from 3.48681e-006 +++++++++++++++to 3.48781e-006
Heightened Def Con from 3.48781e-006 +++++++++++++++to 3.48881e-006
Heightened Def Con from 3.48881e-006 +++++++++++++++to 3.48981e-006
Heightened Def Con from 3.48981e-006 +++++++++++++++to 3.49081e-006
Heightened Def Con from 3.49081e-006 +++++++++++++++to 3.49181e-006
Heightened Def Con from 3.49181e-006 +++++++++++++++to 3.49281e-006
Heightened Def Con from 3.49281e-006 +++++++++++++++to 3.49381e-006
Heightened Def Con from 3.49381e-006 +++++++++++++++to 3.49481e-006
Heightened Def Con from 3.49481e-006 +++++++++++++++to 3.49581e-006
Heightened Def Con from 3.49581e-006 +++++++++++++++to 3.49681e-006
Heightened Def Con from 3.49681e-006 +++++++++++++++to 3.49781e-006
Heightened Def Con from 3.49781e-006 +++++++++++++++to 3.49881e-006
Heightened Def Con from 3.49881e-006 +++++++++++++++to 3.49981e-006
Heightened Def Con from 3.49981e-006 +++++++++++++++to 3.50081e-006
Heightened Def Con from 3.50081e-006 +++++++++++++++to 3.50181e-006
Heightened Def Con from 3.50181e-006 +++++++++++++++to 3.50281e-006
Heightened Def Con from 3.50281e-006 +++++++++++++++to 3.50381e-006
Heightened Def Con from 3.50381e-006 +++++++++++++++to 3.50481e-006
Heightened Def Con from 3.50481e-006 +++++++++++++++to 3.50581e-006
Heightened Def Con from 3.50581e-006 +++++++++++++++to 3.50681e-006
Heightened Def Con from 3.50681e-006 +++++++++++++++to 3.50781e-006
Heightened Def Con from 3.50781e-006 +++++++++++++++to 3.50881e-006
Heightened Def Con from 3.50881e-006 +++++++++++++++to 3.50981e-006
Heightened Def Con from 3.50981e-006 +++++++++++++++to 3.51081e-006
Heightened Def Con from 3.51081e-006 +++++++++++++++to 3.51181e-006
Heightened Def Con from 3.51181e-006 +++++++++++++++to 3.51281e-006
Heightened Def Con from 3.51281e-006 +++++++++++++++to 3.51381e-006
Heightened Def Con from 3.51381e-006 +++++++++++++++to 3.51481e-006
Heightened Def Con from 3.51481e-006 +++++++++++++++to 3.51581e-006
Heightened Def Con from 3.51581e-006 +++++++++++++++to 3.51681e-006
Heightened Def Con from 3.51681e-006 +++++++++++++++to 3.51781e-006
Heightened Def Con from 3.51781e-006 +++++++++++++++to 3.51881e-006
Heightened Def Con from 3.51881e-006 +++++++++++++++to 3.51981e-006
Heightened Def Con from 3.51981e-006 +++++++++++++++to 3.52081e-006
Heightened Def Con from 3.52081e-006 +++++++++++++++to 3.52181e-006
Heightened Def Con from 3.52181e-006 +++++++++++++++to 3.52281e-006
Heightened Def Con from 3.52281e-006 +++++++++++++++to 3.52381e-006
Heightened Def Con from 3.52381e-006 +++++++++++++++to 3.52481e-006
Heightened Def Con from 3.52481e-006 +++++++++++++++to 3.52581e-006
[...]
Heightened Def Con from 2.08201e-005 +++++++++++++++to 2.08211e-005
Heightened Def Con from 2.08211e-005 +++++++++++++++to 2.08221e-005
Heightened Def Con from 2.08221e-005 +++++++++++++++to 2.08231e-005
Heightened Def Con from 2.08231e-005 +++++++++++++++to 2.08241e-005
Heightened Def Con from 2.08241e-005 +++++++++++++++to 2.08251e-005
Heightened Def Con from 2.08251e-005 +++++++++++++++to 2.08261e-005
Heightened Def Con from 2.08261e-005 +++++++++++++++to 2.08271e-005
Heightened Def Con from 2.08271e-005 +++++++++++++++to 2.08281e-005
Heightened Def Con from 2.08281e-005 +++++++++++++++to 2.08291e-005
Heightened Def Con from 2.08291e-005 +++++++++++++++to 2.08301e-005
Heightened Def Con from 2.08301e-005 +++++++++++++++to 2.08311e-005
Heightened Def Con from 2.08311e-005 +++++++++++++++to 2.08321e-005
Heightened Def Con from 2.08321e-005 +++++++++++++++to 2.08331e-005
Heightened Def Con from 2.08331e-005 +++++++++++++++to 2.08341e-005
Heightened Def Con from 2.08341e-005 +++++++++++++++to 2.08351e-005
Heightened Def Con from 2.08351e-005 +++++++++++++++to 2.08361e-005
Heightened Def Con from 2.08361e-005 +++++++++++++++to 2.08371e-005
Heightened Def Con from 2.08371e-005 +++++++++++++++to 2.08381e-005
Heightened Def Con from 2.08381e-005 +++++++++++++++to 2.08391e-005
Heightened Def Con from 2.08391e-005 +++++++++++++++to 2.08401e-005
Heightened Def Con from 2.08401e-005 +++++++++++++++to 2.08411e-005
Heightened Def Con from 2.08411e-005 +++++++++++++++to 2.08421e-005
Heightened Def Con from 2.08421e-005 +++++++++++++++to 2.08431e-005
Heightened Def Con from 2.08431e-005 +++++++++++++++to 2.08441e-005
Heightened Def Con from 2.08441e-005 +++++++++++++++to 2.08451e-005
Heightened Def Con from 2.08451e-005 +++++++++++++++to 2.08461e-005
Heightened Def Con from 2.08461e-005 +++++++++++++++to 2.08471e-005
Heightened Def Con from 2.08471e-005 +++++++++++++++to 2.08481e-005
Heightened Def Con from 2.08481e-005 +++++++++++++++to 2.08491e-005
Heightened Def Con from 2.08491e-005 +++++++++++++++to 2.08501e-005
Heightened Def Con from 2.08501e-005 +++++++++++++++to 2.08511e-005
Heightened Def Con from 2.08511e-005 +++++++++++++++to 2.08521e-005
Heightened Def Con from 2.08521e-005 +++++++++++++++to 2.08531e-005
Heightened Def Con from 2.08531e-005 +++++++++++++++to 2.08541e-005
Heightened Def Con from 2.08541e-005 +++++++++++++++to 2.08551e-005
Heightened Def Con from 2.08551e-005 +++++++++++++++to 2.08561e-005
Heightened Def Con from 2.08561e-005 +++++++++++++++to 2.08571e-005
Heightened Def Con from 2.08571e-005 +++++++++++++++to 2.08581e-005
Heightened Def Con from 2.08581e-005 +++++++++++++++to 2.08591e-005
Heightened Def Con from 2.08591e-005 +++++++++++++++to 2.08601e-005
Heightened Def Con from 2.08601e-005 +++++++++++++++to 2.08611e-005
Heightened Def Con from 2.08611e-005 +++++++++++++++to 2.08621e-005
Heightened Def Con from 2.08621e-005 +++++++++++++++to 2.08631e-005
Heightened Def Con from 2.08631e-005 +++++++++++++++to 2.08641e-005
Heightened Def Con from 2.08641e-005 +++++++++++++++to 2.08651e-005
Heightened Def Con from 2.08651e-005 +++++++++++++++to 2.08661e-005
Heightened Def Con from 2.08661e-005 +++++++++++++++to 2.08671e-005
Heightened Def Con from 2.08671e-005 +++++++++++++++to 2.08681e-005
Heightened Def Con from 2.08681e-005 +++++++++++++++to 2.08691e-005
Heightened Def Con from 2.08691e-005 +++++++++++++++to 2.08701e-005
Heightened Def Con from 2.08701e-005 +++++++++++++++to 2.08711e-005
Heightened Def Con from 2.08711e-005 +++++++++++++++to 2.08721e-005
Heightened Def Con from 2.08721e-005 +++++++++++++++to 2.08731e-005
Heightened Def Con from 2.08731e-005 +++++++++++++++to 2.08741e-005
Heightened Def Con from 2.08741e-005 +++++++++++++++to 2.08751e-005
Heightened Def Con from 2.08751e-005 +++++++++++++++to 2.08761e-005
Heightened Def Con from 2.08761e-005 +++++++++++++++to 2.08771e-005
Heightened Def Con from 2.08771e-005 +++++++++++++++to 2.08781e-005
Heightened Def Con from 2.08781e-005 +++++++++++++++to 2.08791e-005
Heightened Def Con from 2.08791e-005 +++++++++++++++to 2.08801e-005
Heightened Def Con from 2.08801e-005 +++++++++++++++to 2.08811e-005
Heightened Def Con from 2.08811e-005 +++++++++++++++to 2.08821e-005
Heightened Def Con from 2.08821e-005 +++++++++++++++to 2.08831e-005
Heightened Def Con from 2.08831e-005 +++++++++++++++to 2.08841e-005
Heightened Def Con from 2.08841e-005 +++++++++++++++to 2.08851e-005
Heightened Def Con from 2.08851e-005 +++++++++++++++to 2.08861e-005
Heightened Def Con from 2.08861e-005 +++++++++++++++to 2.08871e-005
Heightened Def Con from 2.08871e-005 +++++++++++++++to 2.08881e-005
Heightened Def Con from 2.08881e-005 +++++++++++++++to 2.08891e-005
Heightened Def Con from 2.08891e-005 +++++++++++++++to 2.08901e-005
Heightened Def Con from 2.08901e-005 +++++++++++++++to 2.08911e-005
Heightened Def Con from 2.08911e-005 +++++++++++++++to 2.08921e-005
Heightened Def Con from 2.08921e-005 +++++++++++++++to 2.08931e-005
Heightened Def Con from 2.08931e-005 +++++++++++++++to 2.08941e-005
Heightened Def Con from 2.08941e-005 +++++++++++++++to 2.08951e-005
Heightened Def Con from 2.08951e-005 +++++++++++++++to 2.08961e-005
Heightened Def Con from 2.08961e-005 +++++++++++++++to 2.08971e-005
Heightened Def Con from 2.08971e-005 +++++++++++++++to 2.08981e-005
Heightened Def Con from 2.08981e-005 +++++++++++++++to 2.08991e-005
Heightened Def Con from 2.08991e-005 +++++++++++++++to 2.09001e-005
Heightened Def Con from 2.09001e-005 +++++++++++++++to 2.09011e-005
Heightened Def Con from 2.09011e-005 +++++++++++++++to 2.09021e-005
Heightened Def Con from 2.09021e-005 +++++++++++++++to 2.09031e-005
Heightened Def Con from 2.09031e-005 +++++++++++++++to 2.09041e-005
Heightened Def Con from 2.09041e-005 +++++++++++++++to 2.09051e-005
Heightened Def Con from 2.09051e-005 +++++++++++++++to 2.09061e-005
Heightened Def Con from 2.09061e-005 +++++++++++++++to 2.09071e-005
Heightened Def Con from 2.09071e-005 +++++++++++++++to 2.09081e-005
Heightened Def Con from 2.09081e-005 +++++++++++++++to 2.09091e-005
Heightened Def Con from 2.09091e-005 +++++++++++++++to 2.09101e-005
Heightened Def Con from 2.09101e-005 +++++++++++++++to 2.09111e-005
Heightened Def Con from 2.09111e-005 +++++++++++++++to 2.09121e-005
Heightened Def Con from 2.09121e-005 +++++++++++++++to 2.09131e-005
Heightened Def Con from 2.09131e-005 +++++++++++++++to 2.09141e-005
Heightened Def Con from 2.09141e-005 +++++++++++++++to 2.09151e-005
Heightened Def Con from 2.09151e-005 +++++++++++++++to 2.09161e-005
Heightened Def Con from 2.09161e-005 +++++++++++++++to 2.09171e-005
Heightened Def Con from 2.09171e-005 +++++++++++++++to 2.09181e-005
Heightened Def Con from 2.09181e-005 +++++++++++++++to 2.09191e-005
Heightened Def Con from 2.09191e-005 +++++++++++++++to 2.09201e-005
Heightened Def Con from 2.09201e-005 +++++++++++++++to 2.09211e-005
Heightened Def Con from 2.09211e-005 +++++++++++++++to 2.09221e-005
Heightened Def Con from 2.09221e-005 +++++++++++++++to 2.09231e-005
Heightened Def Con from 2.09231e-005 +++++++++++++++to 2.09241e-005
Heightened Def Con from 2.09241e-005 +++++++++++++++to 2.09251e-005
Heightened Def Con from 2.09251e-005 +++++++++++++++to 2.09261e-005
Heightened Def Con from 2.09261e-005 +++++++++++++++to 2.09271e-005
Heightened Def Con from 2.09271e-005 +++++++++++++++to 2.09281e-005
Heightened Def Con from 2.09281e-005 +++++++++++++++to 2.09291e-005
Heightened Def Con from 2.09291e-005 +++++++++++++++to 2.09301e-005
Heightened Def Con from 2.09301e-005 +++++++++++++++to 2.09311e-005
Heightened Def Con from 2.09311e-005 +++++++++++++++to 2.09321e-005
Heightened Def Con from 2.09321e-005 +++++++++++++++to 2.09331e-005
Heightened Def Con from 2.09331e-005 +++++++++++++++to 2.09341e-005
Heightened Def Con from 2.09341e-005 +++++++++++++++to 2.09351e-005
Heightened Def Con from 2.09351e-005 +++++++++++++++to 2.09361e-005
Heightened Def Con from 2.09361e-005 +++++++++++++++to 2.09371e-005
Heightened Def Con from 2.09371e-005 +++++++++++++++to 2.09381e-005
Heightened Def Con from 2.09381e-005 +++++++++++++++to 2.09391e-005
Heightened Def Con from 2.09391e-005 +++++++++++++++to 2.09401e-005
Heightened Def Con from 2.09401e-005 +++++++++++++++to 2.09411e-005
Heightened Def Con from 2.09411e-005 +++++++++++++++to 2.09421e-005
Heightened Def Con from 2.09421e-005 +++++++++++++++to 2.09431e-005
Heightened Def Con from 2.09431e-005 +++++++++++++++to 2.09441e-005
Heightened Def Con from 2.09441e-005 +++++++++++++++to 2.09451e-005
Heightened Def Con from 2.09451e-005 +++++++++++++++to 2.09461e-005
Heightened Def Con from 2.09461e-005 +++++++++++++++to 2.09471e-005
Heightened Def Con from 2.09471e-005 +++++++++++++++to 2.09481e-005
Heightened Def Con from 2.09481e-005 +++++++++++++++to 2.09491e-005
Heightened Def Con from 2.09491e-005 +++++++++++++++to 2.09501e-005
Heightened Def Con from 2.09501e-005 +++++++++++++++to 2.09511e-005
Heightened Def Con from 2.09511e-005 +++++++++++++++to 2.09521e-005
Heightened Def Con from 2.09521e-005 +++++++++++++++to 2.09531e-005
Heightened Def Con from 2.09531e-005 +++++++++++++++to 2.09541e-005
Heightened Def Con from 2.09541e-005 +++++++++++++++to 2.09551e-005
Heightened Def Con from 2.09551e-005 +++++++++++++++to 2.09561e-005
Heightened Def Con from 2.09561e-005 +++++++++++++++to 2.09571e-005
Heightened Def Con from 2.09571e-005 +++++++++++++++to 2.09581e-005
Heightened Def Con from 2.09581e-005 +++++++++++++++to 2.09591e-005
Heightened Def Con from 2.09591e-005 +++++++++++++++to 2.09601e-005
Heightened Def Con from 2.09601e-005 +++++++++++++++to 2.09611e-005
Heightened Def Con from 2.09611e-005 +++++++++++++++to 2.09621e-005
Heightened Def Con from 2.09621e-005 +++++++++++++++to 2.09631e-005
Heightened Def Con from 2.09631e-005 +++++++++++++++to 2.09641e-005
Heightened Def Con from 2.09641e-005 +++++++++++++++to 2.09651e-005
Heightened Def Con from 2.09651e-005 +++++++++++++++to 2.09661e-005
Heightened Def Con from 2.09661e-005 +++++++++++++++to 2.09671e-005
Heightened Def Con from 2.09671e-005 +++++++++++++++to 2.09681e-005
Heightened Def Con from 2.09681e-005 +++++++++++++++to 2.09691e-005
Heightened Def Con from 2.09691e-005 +++++++++++++++to 2.09701e-005
Heightened Def Con from 2.09701e-005 +++++++++++++++to 2.09711e-005
Heightened Def Con from 2.09711e-005 +++++++++++++++to 2.09721e-005
Heightened Def Con from 2.09721e-005 +++++++++++++++to 2.09731e-005
Heightened Def Con from 2.09731e-005 +++++++++++++++to 2.09741e-005
Heightened Def Con from 2.09741e-005 +++++++++++++++to 2.09751e-005
Heightened Def Con from 2.09751e-005 +++++++++++++++to 2.09761e-005
Heightened Def Con from 2.09761e-005 +++++++++++++++to 2.09771e-005
Heightened Def Con from 2.09771e-005 +++++++++++++++to 2.09781e-005
Heightened Def Con from 2.09781e-005 +++++++++++++++to 2.09791e-005
Heightened Def Con from 2.09791e-005 +++++++++++++++to 2.09801e-005
Heightened Def Con from 2.09801e-005 +++++++++++++++to 2.09811e-005
Heightened Def Con from 2.09811e-005 +++++++++++++++to 2.09821e-005
Heightened Def Con from 2.09821e-005 +++++++++++++++to 2.09831e-005
Heightened Def Con from 2.09831e-005 +++++++++++++++to 2.09841e-005
Heightened Def Con from 2.09841e-005 +++++++++++++++to 2.09851e-005
Heightened Def Con from 2.09851e-005 +++++++++++++++to 2.09861e-005
Heightened Def Con from 2.09861e-005 +++++++++++++++to 2.09871e-005
Heightened Def Con from 2.09871e-005 +++++++++++++++to 2.09881e-005
Heightened Def Con from 2.09881e-005 +++++++++++++++to 2.09891e-005
Heightened Def Con from 2.09891e-005 +++++++++++++++to 2.09901e-005
Heightened Def Con from 2.09901e-005 +++++++++++++++to 2.09911e-005
Heightened Def Con from 2.09911e-005 +++++++++++++++to 2.09921e-005
Heightened Def Con from 2.09921e-005 +++++++++++++++to 2.09931e-005
Heightened Def Con from 2.09931e-005 +++++++++++++++to 2.09941e-005
Heightened Def Con from 2.09941e-005 +++++++++++++++to 2.09951e-005
Heightened Def Con from 2.09951e-005 +++++++++++++++to 2.09961e-005
Heightened Def Con from 2.09961e-005 +++++++++++++++to 2.09971e-005
Heightened Def Con from 2.09971e-005 +++++++++++++++to 2.09981e-005
Heightened Def Con from 2.09981e-005 +++++++++++++++to 2.09991e-005
Heightened Def Con from 2.09991e-005 +++++++++++++++to 2.10001e-005
Heightened Def Con from 2.10001e-005 +++++++++++++++to 2.10011e-005
Heightened Def Con from 2.10011e-005 +++++++++++++++to 2.10021e-005
Heightened Def Con from 2.10021e-005 +++++++++++++++to 2.10031e-005
Heightened Def Con from 2.10031e-005 +++++++++++++++to 2.10041e-005
Heightened Def Con from 2.10041e-005 +++++++++++++++to 2.10051e-005
Heightened Def Con from 2.10051e-005 +++++++++++++++to 2.10061e-005
Heightened Def Con from 2.10061e-005 +++++++++++++++to 2.10071e-005
Heightened Def Con from 2.10071e-005 +++++++++++++++to 2.10081e-005
Heightened Def Con from 2.10081e-005 +++++++++++++++to 2.10091e-005
Heightened Def Con from 2.10091e-005 +++++++++++++++to 2.10101e-005
Heightened Def Con from 2.10101e-005 +++++++++++++++to 2.10111e-005
Heightened Def Con from 2.10111e-005 +++++++++++++++to 2.10121e-005
Heightened Def Con from 2.10121e-005 +++++++++++++++to 2.10131e-005
Heightened Def Con from 2.10131e-005 +++++++++++++++to 2.10141e-005
Heightened Def Con from 2.10141e-005 +++++++++++++++to 2.10151e-005
Heightened Def Con from 2.10151e-005 +++++++++++++++to 2.10161e-005
Heightened Def Con from 2.10161e-005 +++++++++++++++to 2.10171e-005
Heightened Def Con from 2.10171e-005 +++++++++++++++to 2.10181e-005
Heightened Def Con from 2.10181e-005 +++++++++++++++to 2.10191e-005
Heightened Def Con from 2.10191e-005 +++++++++++++++to 2.10201e-005
Heightened Def Con from 2.10201e-005 +++++++++++++++to 2.10211e-005
Heightened Def Con from 2.10211e-005 +++++++++++++++to 2.10221e-005
Heightened Def Con from 2.10221e-005 +++++++++++++++to 2.10231e-005
Heightened Def Con from 2.10231e-005 +++++++++++++++to 2.10241e-005
Heightened Def Con from 2.10241e-005 +++++++++++++++to 2.10251e-005
Heightened Def Con from 2.10251e-005 +++++++++++++++to 2.10261e-005
Heightened Def Con from 2.10261e-005 +++++++++++++++to 2.10271e-005
Heightened Def Con from 2.10271e-005 +++++++++++++++to 2.10281e-005
Heightened Def Con from 2.10281e-005 +++++++++++++++to 2.10291e-005
Heightened Def Con from 2.10291e-005 +++++++++++++++to 2.10301e-005
Heightened Def Con from 2.10301e-005 +++++++++++++++to 2.10311e-005
Heightened Def Con from 2.10311e-005 +++++++++++++++to 2.10321e-005
Heightened Def Con from 2.10321e-005 +++++++++++++++to 2.10331e-005
Heightened Def Con from 2.10331e-005 +++++++++++++++to 2.10341e-005
Heightened Def Con from 2.10341e-005 +++++++++++++++to 2.10351e-005
Heightened Def Con from 2.10351e-005 +++++++++++++++to 2.10361e-005
Heightened Def Con from 2.10361e-005 +++++++++++++++to 2.10371e-005
Heightened Def Con from 2.10371e-005 +++++++++++++++to 2.10381e-005
Heightened Def Con from 2.10381e-005 +++++++++++++++to 2.10391e-005
Heightened Def Con from 2.10391e-005 +++++++++++++++to 2.10401e-005
Heightened Def Con from 2.10401e-005 +++++++++++++++to 2.10411e-005
Heightened Def Con from 2.10411e-005 +++++++++++++++to 2.10421e-005
Heightened Def Con from 2.10421e-005 +++++++++++++++to 2.10431e-005
Heightened Def Con from 2.10431e-005 +++++++++++++++to 2.10441e-005
Heightened Def Con from 2.10441e-005 +++++++++++++++to 2.10451e-005
Heightened Def Con from 2.10451e-005 +++++++++++++++to 2.10461e-005
Heightened Def Con from 2.10461e-005 +++++++++++++++to 2.10471e-005
Heightened Def Con from 2.10471e-005 +++++++++++++++to 2.10481e-005
Heightened Def Con from 2.10481e-005 +++++++++++++++to 2.10491e-005
Heightened Def Con from 2.10491e-005 +++++++++++++++to 2.10501e-005
Heightened Def Con from 2.10501e-005 +++++++++++++++to 2.10511e-005
Heightened Def Con from 2.10511e-005 +++++++++++++++to 2.10521e-005
Heightened Def Con from 2.10521e-005 +++++++++++++++to 2.10531e-005
Heightened Def Con from 2.10531e-005 +++++++++++++++to 2.10541e-005
Heightened Def Con from 2.10541e-005 +++++++++++++++to 2.10551e-005
Heightened Def Con from 2.10551e-005 +++++++++++++++to 2.10561e-005
Heightened Def Con from 2.10561e-005 +++++++++++++++to 2.10571e-005
Heightened Def Con from 2.10571e-005 +++++++++++++++to 2.10581e-005
Heightened Def Con from 2.10581e-005 +++++++++++++++to 2.10591e-005
Heightened Def Con from 2.10591e-005 +++++++++++++++to 2.10601e-005
Heightened Def Con from 2.10601e-005 +++++++++++++++to 2.10611e-005
Heightened Def Con from 2.10611e-005 +++++++++++++++to 2.10621e-005
Heightened Def Con from 2.10621e-005 +++++++++++++++to 2.10631e-005
Heightened Def Con from 2.10631e-005 +++++++++++++++to 2.10641e-005
Heightened Def Con from 2.10641e-005 +++++++++++++++to 2.10651e-005
Heightened Def Con from 2.10651e-005 +++++++++++++++to 2.10661e-005
Heightened Def Con from 2.10661e-005 +++++++++++++++to 2.10671e-005
Heightened Def Con from 2.10671e-005 +++++++++++++++to 2.10681e-005
Heightened Def Con from 2.10681e-005 +++++++++++++++to 2.10691e-005
Heightened Def Con from 2.10691e-005 +++++++++++++++to 2.10701e-005
Heightened Def Con from 2.10701e-005 +++++++++++++++to 2.10711e-005
Heightened Def Con from 2.10711e-005 +++++++++++++++to 2.10721e-005
Heightened Def Con from 2.10721e-005 +++++++++++++++to 2.10731e-005
Heightened Def Con from 2.10731e-005 +++++++++++++++to 2.10741e-005
Heightened Def Con from 2.10741e-005 +++++++++++++++to 2.10751e-005
Heightened Def Con from 2.10751e-005 +++++++++++++++to 2.10761e-005
Heightened Def Con from 2.10761e-005 +++++++++++++++to 2.10771e-005
Heightened Def Con from 2.10771e-005 +++++++++++++++to 2.10781e-005
Heightened Def Con from 2.10781e-005 +++++++++++++++to 2.10791e-005
Heightened Def Con from 2.10791e-005 +++++++++++++++to 2.10801e-005
Heightened Def Con from 2.10801e-005 +++++++++++++++to 2.10811e-005
Heightened Def Con from 2.10811e-005 +++++++++++++++to 2.10821e-005
Heightened Def Con from 2.10821e-005 +++++++++++++++to 2.10831e-005
Heightened Def Con from 2.10831e-005 +++++++++++++++to 2.10841e-005
Heightened Def Con from 2.10841e-005 +++++++++++++++to 2.10851e-005
Heightened Def Con from 2.10851e-005 +++++++++++++++to 2.10861e-005
Heightened Def Con from 2.10861e-005 +++++++++++++++to 2.10871e-005
Heightened Def Con from 2.10871e-005 +++++++++++++++to 2.10881e-005
Heightened Def Con from 2.10881e-005 +++++++++++++++to 2.10891e-005
Heightened Def Con from 2.10891e-005 +++++++++++++++to 2.10901e-005
Heightened Def Con from 2.10901e-005 +++++++++++++++to 2.10911e-005
Heightened Def Con from 2.10911e-005 +++++++++++++++to 2.10921e-005
Heightened Def Con from 2.10921e-005 +++++++++++++++to 2.10931e-005
Heightened Def Con from 2.10931e-005 +++++++++++++++to 2.10941e-005
Heightened Def Con from 2.10941e-005 +++++++++++++++to 2.10951e-005
Heightened Def Con from 2.10951e-005 +++++++++++++++to 2.10961e-005
Heightened Def Con from 2.10961e-005 +++++++++++++++to 2.10971e-005
Heightened Def Con from 2.10971e-005 +++++++++++++++to 2.10981e-005
Heightened Def Con from 2.10981e-005 +++++++++++++++to 2.10991e-005
Heightened Def Con from 2.10991e-005 +++++++++++++++to 2.11001e-005
Heightened Def Con from 2.11001e-005 +++++++++++++++to 2.11011e-005
Heightened Def Con from 2.11011e-005 +++++++++++++++to 2.11021e-005
Heightened Def Con from 2.11021e-005 +++++++++++++++to 2.11031e-005
Heightened Def Con from 2.11031e-005 +++++++++++++++to 2.11041e-005
Heightened Def Con from 2.11041e-005 +++++++++++++++to 2.11051e-005
Heightened Def Con from 2.11051e-005 +++++++++++++++to 2.11061e-005
Heightened Def Con from 2.11061e-005 ++++++to 2.11061e-005

Date: Fri Apr 05 12:09:51 2019
Total elapsed time: 590.108 seconds.

tnom = 27
temp = 27
method = modified trap
totiter = 14772687
traniter = 14756780
tranpoints = 1349439
accept = 131857
rejected = 1338564
matrix size = 307
fillins = 560
solver = Normal
Thread vector: 28.8/17.8[4] 7.8/6.0[4] 2.5/2.1[2] 1.6/31.3[1]  2592/500
Matrix Compiler1: 43.23 KB object code size  14.0/6.4/[3.9]
Matrix Compiler2: 32.28 KB object code size  5.2/6.6/[3.5]

