Circuit: * C:\Users\MAIN\Desktop\class-d\spice.asc

Direct Newton iteration failed to find .op point.  (Use ".option noopiter" to skip.)
Starting Gmin stepping
Gmin = 10
vernier = 0.5
vernier = 0.25
Gmin = 2.62144
vernier = 0.125
vernier = 0.0625
vernier = 0.03125
vernier = 0.015625
Gmin = 2.42928
vernier = 0.0078125
vernier = 0.00390625
vernier = 0.00520833
Gmin = 2.41431
vernier = 0.00694444
Gmin = 2.37794
vernier = 0.00925925
vernier = 0.0123457
Gmin = 2.31957
vernier = 0.0164609
vernier = 0.0219478
Gmin = 2.23005
vernier = 0.0292638
Gmin = 2.0922
vernier = 0.0390184
vernier = 0.0520245
Gmin = 1.88498
vernier = 0.0693659
vernier = 0.0924879
Gmin = 1.59861
vernier = 0.123317
Gmin = 1.2251
vernier = 0.164423
vernier = 0.0822114
vernier = 0.0411057
Gmin = 1.02147
vernier = 0.0205529
vernier = 0.0102764
vernier = 0.00513821
Gmin = 1.00975
vernier = 0.00256911
vernier = 0.00128455
Gmin = 1.0049
vernier = 0.00171274
vernier = 0.000856369
Gmin = 1.00275
vernier = 0.000428184
vernier = 0.000570912
vernier = 0.000428184
Gmin = 1.00221
Gmin = 0
Gmin stepping failed

Starting source stepping with srcstepmethod=0
Source Step = 3.0303%
Source Step = 33.3333%
Source Step = 63.6364%
Source Step = 93.9394%
Source stepping succeeded in finding the operating point.

Ignoring empty pin current: Ix(u5:5)
Ignoring empty pin current: Ix(u5:5)
Heightened Def Con from 6.53051e-007 to 6.53161e-007
Heightened Def Con from 6.77152e-006 to 6.77161e-006
Heightened Def Con from 1.9226e-005 to 1.92261e-005
Heightened Def Con from 1.93422e-005 to 1.93422e-005
Heightened Def Con from 2.24126e-005 to 2.24186e-005
Heightened Def Con from 2.78467e-005 to 2.78527e-005
Heightened Def Con from 3.19005e-005 to 3.19006e-005
Heightened Def Con from 3.35302e-005 to 3.35362e-005
Heightened Def Con from 3.8186e-005 to 3.8186e-005
Heightened Def Con from 3.96978e-005 to 3.97038e-005
Heightened Def Con from 4.4333e-005 to 4.43331e-005
Heightened Def Con from 5.04141e-005 to 5.04142e-005
Heightened Def Con from 5.40678e-005 to 5.40738e-005
Heightened Def Con from 6.12331e-005 to 6.12391e-005
Heightened Def Con from 7.2631e-005 to 7.2637e-005
Heightened Def Con from 8.36564e-005 to 8.36624e-005
Heightened Def Con from 8.79415e-005 to 8.79417e-005
Heightened Def Con from 9.40871e-005 to 9.40872e-005
Heightened Def Con from 0.000100206 to 0.000100206
Heightened Def Con from 0.000122835 to 0.000122841
Heightened Def Con from 0.000125225 to 0.000125225
Heightened Def Con from 0.000128131 to 0.000128137
Heightened Def Con from 0.000133751 to 0.000133757
Heightened Def Con from 0.000137727 to 0.000137727
Heightened Def Con from 0.000139951 to 0.000139952
Heightened Def Con from 0.000150013 to 0.000150013
Heightened Def Con from 0.000156139 to 0.000156145
Heightened Def Con from 0.000168593 to 0.000168594
Heightened Def Con from 0.000172937 to 0.000172943
Heightened Def Con from 0.000175035 to 0.000175035
Heightened Def Con from 0.000181231 to 0.000181231
Heightened Def Con from 0.000189931 to 0.000189937
Heightened Def Con from 0.00019695 to 0.000196956
Heightened Def Con from 0.000205924 to 0.000205924
Heightened Def Con from 0.000217759 to 0.000217765
Heightened Def Con from 0.000218393 to 0.000218393
Heightened Def Con from 0.000246813 to 0.000246819
Heightened Def Con from 0.000249615 to 0.000249615
Heightened Def Con from 0.000267596 to 0.000267602
Heightened Def Con from 0.000268164 to 0.000268164
Heightened Def Con from 0.000277951 to 0.000277957
Heightened Def Con from 0.000280827 to 0.000280827
Heightened Def Con from 0.000296477 to 0.000296483
Heightened Def Con from 0.00031168 to 0.00031168
Heightened Def Con from 0.000317968 to 0.000317968
Heightened Def Con from 0.000339222 to 0.000339228
Heightened Def Con from 0.000343113 to 0.000343113
Heightened Def Con from 0.000346024 to 0.00034603
Heightened Def Con from 0.000349229 to 0.00034923
Heightened Def Con from 0.000353634 to 0.00035364
Heightened Def Con from 0.000355368 to 0.000355368
Heightened Def Con from 0.00036154 to 0.00036154
Heightened Def Con from 0.000367795 to 0.000367795
Heightened Def Con from 0.000374127 to 0.000374128
Heightened Def Con from 0.000377265 to 0.000377271
Heightened Def Con from 0.000382773 to 0.000382779
Heightened Def Con from 0.000388796 to 0.000388802
Heightened Def Con from 0.000395505 to 0.000395511
Heightened Def Con from 0.000402943 to 0.000402949
Heightened Def Con from 0.000405221 to 0.000405221
Heightened Def Con from 0.000411384 to 0.000411384
Heightened Def Con from 0.000421578 to 0.000421584
Heightened Def Con from 0.000432358 to 0.000432364
Heightened Def Con from 0.000444962 to 0.000444968
Heightened Def Con from 0.000448989 to 0.000448989
Heightened Def Con from 0.000452218 to 0.000452224
Heightened Def Con from 0.00045509 to 0.00045509
Heightened Def Con from 0.000459399 to 0.000459405
Heightened Def Con from 0.000461261 to 0.000461261
Heightened Def Con from 0.000465564 to 0.00046557
Heightened Def Con from 0.000471037 to 0.000471043
Heightened Def Con from 0.000481898 to 0.000481904
Heightened Def Con from 0.000486569 to 0.000486569
Heightened Def Con from 0.000494394 to 0.0004944
Heightened Def Con from 0.000504978 to 0.000504978
Heightened Def Con from 0.000508696 to 0.000508702
Heightened Def Con from 0.000517426 to 0.000517426
Heightened Def Con from 0.000537382 to 0.000537388
Heightened Def Con from 0.000542645 to 0.000542646
Heightened Def Con from 0.000543859 to 0.000543865
Heightened Def Con from 0.000548764 to 0.000548764
Heightened Def Con from 0.000550905 to 0.000550911
Heightened Def Con from 0.000554865 to 0.000554865
Heightened Def Con from 0.000561048 to 0.000561048
Heightened Def Con from 0.000567293 to 0.000567293
Heightened Def Con from 0.00057547 to 0.000575476
Heightened Def Con from 0.000586355 to 0.000586361
Heightened Def Con from 0.000586939 to 0.000586945
Heightened Def Con from 0.000593347 to 0.000593353
Heightened Def Con from 0.000598619 to 0.00059862
Heightened Def Con from 0.000604732 to 0.000604732
Heightened Def Con from 0.000610892 to 0.000610892
Heightened Def Con from 0.000623496 to 0.000623496
Heightened Def Con from 0.000625065 to 0.000625071
Heightened Def Con from 0.000630651 to 0.000630657
Heightened Def Con from 0.000636216 to 0.000636222
Heightened Def Con from 0.000636564 to 0.00063657
Heightened Def Con from 0.000642408 to 0.000642414
Heightened Def Con from 0.000642955 to 0.000642961
Heightened Def Con from 0.000648498 to 0.000648498
Heightened Def Con from 0.00064988 to 0.000649886
Heightened Def Con from 0.000654594 to 0.000654594
Heightened Def Con from 0.000656921 to 0.000656927
Heightened Def Con from 0.000669217 to 0.000669223
Heightened Def Con from 0.000673346 to 0.000673346
Heightened Def Con from 0.000679738 to 0.000679744
Heightened Def Con from 0.000686068 to 0.000686074
Heightened Def Con from 0.000686237 to 0.000686243
Heightened Def Con from 0.000692606 to 0.000692612
Heightened Def Con from 0.000698336 to 0.000698336
Heightened Def Con from 0.000704393 to 0.000704393
Heightened Def Con from 0.000706502 to 0.000706508
Heightened Def Con from 0.000710543 to 0.000710543
Heightened Def Con from 0.000713031 to 0.000713037
Heightened Def Con from 0.000716779 to 0.000716779
Heightened Def Con from 0.000723148 to 0.000723148
Heightened Def Con from 0.000729531 to 0.000729531
Heightened Def Con from 0.000735839 to 0.000735845
Heightened Def Con from 0.000742033 to 0.000742039
Heightened Def Con from 0.000748123 to 0.000748123
Heightened Def Con from 0.000754198 to 0.000754198
Heightened Def Con from 0.000756216 to 0.000756222
Heightened Def Con from 0.000760308 to 0.000760308
Heightened Def Con from 0.000760319 to 0.00076032
Heightened Def Con from 0.000762777 to 0.000762783
Heightened Def Con from 0.000768672 to 0.000768678
Heightened Def Con from 0.000774262 to 0.000774268
Heightened Def Con from 0.000779873 to 0.000779879
Heightened Def Con from 0.000785648 to 0.000785654
Heightened Def Con from 0.000791855 to 0.000791861
Heightened Def Con from 0.000792136 to 0.000792142
Heightened Def Con from 0.000797929 to 0.000797935
Heightened Def Con from 0.000798988 to 0.000798994
Heightened Def Con from 0.000810156 to 0.000810156
Heightened Def Con from 0.000818621 to 0.000818623
Heightened Def Con from 0.000824183 to 0.000824189
Heightened Def Con from 0.00082909 to 0.00082909
Heightened Def Con from 0.000829776 to 0.000829782
Heightened Def Con from 0.000835661 to 0.000835667
Heightened Def Con from 0.000841601 to 0.000841607
Heightened Def Con from 0.000847461 to 0.000847461
Heightened Def Con from 0.000847462 to 0.000847462
Heightened Def Con from 0.000847681 to 0.000847681
Heightened Def Con from 0.000848897 to 0.000848903
Heightened Def Con from 0.000853744 to 0.000853744
Heightened Def Con from 0.000856033 to 0.000856039
Heightened Def Con from 0.000866108 to 0.000866108
Heightened Def Con from 0.000872442 to 0.000872442
Heightened Def Con from 0.000874151 to 0.000874157
Heightened Def Con from 0.000878817 to 0.000878817
Heightened Def Con from 0.000879732 to 0.000879738
Heightened Def Con from 0.000885626 to 0.000885632
Heightened Def Con from 0.000891353 to 0.000891359
Heightened Def Con from 0.000891981 to 0.000891987
Heightened Def Con from 0.000897436 to 0.000897436
Heightened Def Con from 0.000898919 to 0.000898925
Heightened Def Con from 0.00090348 to 0.00090348
Heightened Def Con from 0.00090351 to 0.00090351
Heightened Def Con from 0.000906109 to 0.000906115
Heightened Def Con from 0.00090963 to 0.00090963
Heightened Def Con from 0.000912791 to 0.000912797
Heightened Def Con from 0.000934872 to 0.000934878
Heightened Def Con from 0.000941107 to 0.000941108
Heightened Def Con from 0.000953294 to 0.000953294
Heightened Def Con from 0.000956346 to 0.000956352
Heightened Def Con from 0.000959419 to 0.000959419
Heightened Def Con from 0.000971962 to 0.000971962
Heightened Def Con from 0.000974358 to 0.000974364
Heightened Def Con from 0.0009783 to 0.0009783
Heightened Def Con from 0.00097989 to 0.000979896
Heightened Def Con from 0.000985774 to 0.00098578
Heightened Def Con from 0.000990874 to 0.000990874
Heightened Def Con from 0.000996976 to 0.000996976
Heightened Def Con from 0.000999276 to 0.000999282
Heightened Def Con from 0.00100308 to 0.00100308
Heightened Def Con from 0.00100922 to 0.00100922
Heightened Def Con from 0.0010134 to 0.00101341
Heightened Def Con from 0.00101918 to 0.00101918
Heightened Def Con from 0.00102185 to 0.00102185
Heightened Def Con from 0.00102458 to 0.00102459
Heightened Def Con from 0.00102811 to 0.00102811
Heightened Def Con from 0.00104238 to 0.00104238
Heightened Def Con from 0.00104955 to 0.00104955
Heightened Def Con from 0.00105288 to 0.00105288
Heightened Def Con from 0.00105903 to 0.00105903
Heightened Def Con from 0.00107478 to 0.00107479
Heightened Def Con from 0.0010861 to 0.0010861
Heightened Def Con from 0.00109047 to 0.00109047
Heightened Def Con from 0.00109659 to 0.00109659
Heightened Def Con from 0.00109983 to 0.00109984
Heightened Def Con from 0.00110271 to 0.00110271
Heightened Def Con from 0.00111973 to 0.00111974
Heightened Def Con from 0.00112157 to 0.00112157
Heightened Def Con from 0.00113041 to 0.00113042
Heightened Def Con from 0.00114028 to 0.00114028
Heightened Def Con from 0.0011427 to 0.00114271
Heightened Def Con from 0.00114641 to 0.00114641
Heightened Def Con from 0.00115005 to 0.00115005
Heightened Def Con from 0.00115252 to 0.00115253
Heightened Def Con from 0.00115867 to 0.00115867
Heightened Def Con from 0.00116439 to 0.0011644
Heightened Def Con from 0.00116487 to 0.00116487
Heightened Def Con from 0.00117508 to 0.00117509
Heightened Def Con from 0.00118623 to 0.00118624
Heightened Def Con from 0.00119007 to 0.00119007
Heightened Def Con from 0.0011927 to 0.00119271
Heightened Def Con from 0.00120793 to 0.00120794
Heightened Def Con from 0.00120847 to 0.00120847
Heightened Def Con from 0.00121449 to 0.0012145
Heightened Def Con from 0.00121469 to 0.00121469
Heightened Def Con from 0.00122119 to 0.00122119
Heightened Def Con from 0.00122731 to 0.00122731
Heightened Def Con from 0.00122742 to 0.00122742
Heightened Def Con from 0.00123036 to 0.00123037
Heightened Def Con from 0.00124599 to 0.00124599
Heightened Def Con from 0.00126975 to 0.00126975
Heightened Def Con from 0.00128344 to 0.00128344
Heightened Def Con from 0.00128593 to 0.00128594
Heightened Def Con from 0.00128969 to 0.00128969
Heightened Def Con from 0.00129232 to 0.00129232
Heightened Def Con from 0.00129583 to 0.00129583
Heightened Def Con from 0.00131433 to 0.00131433
Heightened Def Con from 0.00131948 to 0.00131949
Heightened Def Con from 0.00132992 to 0.00132993
Heightened Def Con from 0.00133562 to 0.00133562
Heightened Def Con from 0.00134199 to 0.00134199
Heightened Def Con from 0.00134571 to 0.00134571
Heightened Def Con from 0.00134917 to 0.00134918
Heightened Def Con from 0.00135182 to 0.00135182
Heightened Def Con from 0.00135798 to 0.00135798
Heightened Def Con from 0.00136353 to 0.00136354
Heightened Def Con from 0.00136421 to 0.00136421
Heightened Def Con from 0.00136907 to 0.00136907
Heightened Def Con from 0.00137958 to 0.00137958
Heightened Def Con from 0.00138527 to 0.00138527
Heightened Def Con from 0.00140169 to 0.00140169
Heightened Def Con from 0.00140611 to 0.00140611
Heightened Def Con from 0.00140783 to 0.00140783
Heightened Def Con from 0.00141286 to 0.00141287
Heightened Def Con from 0.00141405 to 0.00141405
Heightened Def Con from 0.00142913 to 0.00142914
Heightened Def Con from 0.00144548 to 0.00144548
Heightened Def Con from 0.00144799 to 0.001448
Heightened Def Con from 0.00145158 to 0.00145158
Heightened Def Con from 0.00145537 to 0.00145538
Heightened Def Con from 0.00146796 to 0.00146797
Heightened Def Con from 0.0014733 to 0.00147331
Heightened Def Con from 0.00147658 to 0.00147658
Heightened Def Con from 0.00148295 to 0.00148295
Heightened Def Con from 0.00148921 to 0.00148921
Heightened Def Con from 0.00149534 to 0.00149534
Heightened Def Con from 0.00150142 to 0.00150142
Heightened Def Con from 0.00150757 to 0.00150757
Heightened Def Con from 0.00151736 to 0.00151736
Heightened Def Con from 0.0015228 to 0.00152281
Heightened Def Con from 0.00153387 to 0.00153387
Heightened Def Con from 0.0015452 to 0.0015452
Heightened Def Con from 0.00154672 to 0.00154672
Heightened Def Con from 0.00155125 to 0.00155125
Heightened Def Con from 0.00155128 to 0.00155128
Heightened Def Con from 0.00155389 to 0.00155389
Heightened Def Con from 0.0015574 to 0.0015574
Heightened Def Con from 0.00156074 to 0.00156075
Heightened Def Con from 0.0015636 to 0.0015636
Heightened Def Con from 0.00158954 to 0.00158954
Heightened Def Con from 0.00159507 to 0.00159507
Heightened Def Con from 0.00159618 to 0.00159619
Heightened Def Con from 0.00160114 to 0.00160114
Heightened Def Con from 0.00160724 to 0.00160724
Heightened Def Con from 0.00161346 to 0.00161346
Heightened Def Con from 0.00162183 to 0.00162183
Heightened Def Con from 0.00162734 to 0.00162735
Heightened Def Con from 0.00163251 to 0.00163251
Heightened Def Con from 0.00163303 to 0.00163304
Heightened Def Con from 0.00163878 to 0.00163879
Heightened Def Con from 0.00164492 to 0.00164492
Heightened Def Con from 0.00165086 to 0.00165086
Heightened Def Con from 0.00165099 to 0.00165099
Heightened Def Con from 0.00165278 to 0.00165279
Heightened Def Con from 0.00165709 to 0.00165709
Heightened Def Con from 0.00166327 to 0.00166327
Heightened Def Con from 0.00167594 to 0.00167594
Heightened Def Con from 0.00167698 to 0.00167698
Heightened Def Con from 0.00168232 to 0.00168232
Heightened Def Con from 0.0016886 to 0.00168861
Heightened Def Con from 0.00169474 to 0.00169474
Heightened Def Con from 0.00170081 to 0.00170081
Heightened Def Con from 0.00170236 to 0.00170237
Heightened Def Con from 0.00170691 to 0.00170691
Heightened Def Con from 0.00171309 to 0.00171309
Heightened Def Con from 0.00171552 to 0.00171553
Heightened Def Con from 0.00171939 to 0.00171939
Heightened Def Con from 0.00173844 to 0.00173844
Heightened Def Con from 0.00174457 to 0.00174457
Heightened Def Con from 0.00174508 to 0.00174509
Heightened Def Con from 0.00175046 to 0.00175046
Heightened Def Con from 0.00175208 to 0.00175209
Heightened Def Con from 0.00175671 to 0.00175671
Heightened Def Con from 0.00175904 to 0.00175905
Heightened Def Con from 0.00176291 to 0.00176291
Heightened Def Con from 0.00176532 to 0.00176532
Heightened Def Con from 0.0017692 to 0.0017692
Heightened Def Con from 0.00177557 to 0.00177557
Heightened Def Con from 0.00178826 to 0.00178827
Heightened Def Con from 0.00178836 to 0.00178836
Heightened Def Con from 0.0017944 to 0.0017944
Heightened Def Con from 0.00180046 to 0.00180046
Heightened Def Con from 0.00180649 to 0.00180649
Heightened Def Con from 0.00180653 to 0.00180653
Heightened Def Con from 0.00180891 to 0.00180891
Heightened Def Con from 0.0018127 to 0.0018127
Heightened Def Con from 0.00182533 to 0.00182533
Heightened Def Con from 0.00183802 to 0.00183802
Heightened Def Con from 0.00184415 to 0.00184416
Heightened Def Con from 0.00185023 to 0.00185023
Heightened Def Con from 0.00185631 to 0.00185631
Heightened Def Con from 0.00186249 to 0.00186249
Heightened Def Con from 0.00186878 to 0.00186878
Heightened Def Con from 0.00187513 to 0.00187513
Heightened Def Con from 0.0018878 to 0.0018878
Heightened Def Con from 0.00189395 to 0.00189395
Heightened Def Con from 0.00189485 to 0.00189486
Heightened Def Con from 0.0019 to 0.0019
Heightened Def Con from 0.00190608 to 0.00190608
Heightened Def Con from 0.00190609 to 0.00190609
Heightened Def Con from 0.00190906 to 0.00190906
Heightened Def Con from 0.00191227 to 0.00191227
Heightened Def Con from 0.00191855 to 0.00191855
Heightened Def Con from 0.00192105 to 0.00192106
Heightened Def Con from 0.00193755 to 0.00193755
Heightened Def Con from 0.00193832 to 0.00193833
Heightened Def Con from 0.00194372 to 0.00194372
Heightened Def Con from 0.00194495 to 0.00194496
Heightened Def Con from 0.00194979 to 0.00194979
Heightened Def Con from 0.00195931 to 0.00195932
Heightened Def Con from 0.00196205 to 0.00196205
Heightened Def Con from 0.00196561 to 0.00196562
Heightened Def Con from 0.00196833 to 0.00196833
Heightened Def Con from 0.00197466 to 0.00197466
Heightened Def Con from 0.00197668 to 0.00197668
Heightened Def Con from 0.001981 to 0.001981
Heightened Def Con from 0.0019884 to 0.00198841
Heightened Def Con from 0.00199345 to 0.00199345
Heightened Def Con from 0.0019951 to 0.0019951
Heightened Def Con from 0.00199955 to 0.00199955
Heightened Def Con from 0.00200567 to 0.00200567
Heightened Def Con from 0.00200966 to 0.00200967
Heightened Def Con from 0.00201186 to 0.00201186
Heightened Def Con from 0.00201812 to 0.00201812
Heightened Def Con from 0.00202687 to 0.00202688
Heightened Def Con from 0.0020453 to 0.0020453
Heightened Def Con from 0.00204935 to 0.00204935
Heightened Def Con from 0.00205273 to 0.00205274
Heightened Def Con from 0.00205546 to 0.00205546
Heightened Def Con from 0.00206003 to 0.00206004
Heightened Def Con from 0.00206163 to 0.00206163
Heightened Def Con from 0.00206623 to 0.00206624
Heightened Def Con from 0.00207169 to 0.00207169
Heightened Def Con from 0.00207703 to 0.00207704
Heightened Def Con from 0.00209302 to 0.00209302
Heightened Def Con from 0.00209912 to 0.00209912

Date: Wed Apr 03 21:01:01 2019
Total elapsed time: 67.677 seconds.

tnom = 27
temp = 27
method = modified trap
totiter = 1249066
traniter = 1243616
tranpoints = 301259
accept = 220602
rejected = 81018
matrix size = 308
fillins = 489
solver = Normal
Thread vector: 22.9/15.1[4] 7.6/6.2[4] 3.4/2.7[3] 1.6/463.7[1]  2592/500
Matrix Compiler1: 36.96 KB object code size  10.8/4.8/[3.2]
Matrix Compiler2: 30.68 KB object code size  5.3/15.4/[2.8]

